*EXP.DETAILS: ETMZbakoSN MELKSSAL                                                    

*FILES
@N  EXP.DATA    AFILE        ADIR
  1 EXP         ETMZbako.SNA C:\IRI\Python_Dash\ET_DSS_hist\TEST\                                            
@N  SPECIES     SPFILE       SPDIR
  1 SPE         MZCER047.SPE                                                                                 
@N  ECOTYPE     EFILE        EDIR
  1 ECO         MZCER047.ECO                                                                                 
@N  CULTIVAR    CFILE        CDIR
  1 CUL         MZCER047.CUL                                                                                 
@N  SOIL        SFILE        SDIR
  1 SOIL        ET.SOL                                                                                       
@N  WEATHER     WFILE        WDIR
  1 WEATH       BAKO8101.WTH                                                                                 

*SIMULATION CONTROL
@N  GENERAL     NYERS NREPS START   SDATE RSEED SNAME.................... MODEL...
  1 GE             35     1     S 1981165  2150 15102000                  MZCER047
@N  OPTIONS     WATER NITRO SYMBI PHOSP POTAS DISES  CHEM  TILL   CO2
  1 OP              Y     Y     N     N     N     N     N     N     D
@N  METHODS     WTHER INCON LIGHT EVAPO INFIL PHOTO HYDRO NSWIT SOMDY MESEV MESOL METMP MEGHG
  1 ME              M     M     E     R     S     C     R     1     G     S     2     D     0
@N  MANAGEMENT  PLANT IRRIG FERTI RESID HARVS
  1 MA              R     N     D     N     M
@N  OUTPUTS     FNAME OVVEW SUMRY FROPT GROUT CAOUT WAOUT NIOUT MIOUT DIOUT  LONG CHOUT OPOUT
  1 OU              N     Y     Y     1     Y     Y     Y     Y     N     N     Y     N     Y

!AUTOMATIC MANAGEM
@N  PLANTING      PFRST   PLAST PH2OL PH2OU PH2OD PSTMX PSTMN
  1 PL          1984001 1984059   50.  100.   30.   40.   10.
@N  IRRIGATION  IMDEP ITHRL ITHRU IROFF IMETH IRAMT IREFF
  1 IR            30.   50.  100. GS000 IR001  10.0 0.800
@N  NITROGEN    NMDEP NMTHR NAMNT NCODE NAOFF
  1 NI            30.   50.   25. FE001 GS000
@N  RESIDUES    RIPCN RTIME RIDEP
  1 RE           100.     1   20.
@N  HARVEST     HFRST   HLAST HPCNP HRCNR
  1 HA              0 2000289  100.    0.

*TREATMENTS
@N   R O C TNAME....................  CU  FL  SA  IC  MP  MI  MF  MR  MC  MT  ME  MH  SM
  1  1 0 0 ERiMA DCC1                  1   1   0   1   1   0   1   0   0   0   0   0   1

*CULTIVARS
@C  CR INGENO CNAME
  1 MZ CIMT01 BH540-Kassie    

*FIELDS
@L  ID_FIELD WSTA....  FLSA  FLOB  FLDT  FLDD  FLDS  FLST SLTX   SLDP ID_SOIL
  1 BAKO0001 BAKO8101   0.0  -99.   -99  -99.  100.   -99 L      200. ETET001_18
@L             XCRD            YCRD      ELEV              AREA  SLEN  FLWR  SLAS PRMGT
  1       -99.00000       -99.00000    -99.00               1.0  100.   1.0 -99.0   -99   -99

*INITIAL CONDITIONS
@C  PCR     ICDAT  ICRT  ICND  ICRN  ICRE  ICWD ICRES ICREN ICREP ICRIP ICRID
  1 MZ    1981165     0     0  1.00  1.00   0.0     0  0.00  0.00  100.    0.
@C   ICBL  SH2O  SNH4  SNO3
  1    5. 0.231   0.1  15.0
  1   15. 0.231   0.1  15.0
  1   20. 0.231   0.1  15.0
  1   35. 0.221   0.1   2.0
  1   50. 0.316   0.1   0.0
  1   65. 0.316   0.1   0.0
  1   81. 0.304   0.1   0.0
  1   97. 0.304   0.1   0.0
  1  118. 0.305   0.1   0.0
  1  140. 0.305   0.1   0.0
  1  170. 0.298   0.1   0.0
  1  200. 0.314   0.1   0.0

*PLANTING DETAILS
@P    PDATE   EDATE  PPOP  PPOE  PLME  PLDS  PLRS  PLRD  PLDP  PLWT  PAGE  PENV  PLPH  SPRL
  1 1981166     -99   6.5   6.5     S     R   75.  -99.   2.5  -99.  -99. -99.0 -99.0 -99.0

*IRRIGATION
@I   IEFF  IDEP  ITHR  IEPT  IOFF  IAME  IAMT
  0 1.000    0.    0.    0. GS000 IR001   0.0
@I    IDATE  IROP IRVAL

*FERTILIZERS
@F    FDATE  FMCD  FACD  FDEP  FAMN  FAMP  FAMK  FAMC  FAMO  FOCD
  1       0 FE005 AP002    5.   30.  -99.  -99.  -99.  -99.   -99
  1      45 FE005 AP002    5.   30.  -99.  -99.  -99.  -99.   -99

*RESIDUES
@R    RDATE  RCOD  RAMT  RESN  RESP  RESK  RINP  RDEP  RMET

*CHEMICALS
@C    CDATE CHCOD CHAMT  CHME CHDEP   CHT

*TILLAGE
@T    TDATE TIMPL  TDEP

*ENVIRONMENT
@E    ODATE  EDAY  ERAD  EMAX  EMIN ERAIN  ECO2  EDEW EWIND

*HARVEST
@H    HDATE  HSTG  HCOM HSIZE   HPC  HBPC
