*MODEL INPUT FILE            B    35     1     1   999     0
*FILES              
MODEL          MZCER047
FILEX          ETMZawas.SNX C:\IRI\Python_Dash\ET_DSS_hist\TEST\                                            
FILEA          ETMZawas.SNA C:\IRI\Python_Dash\ET_DSS_hist\TEST\                                            
FILET          ETMZawas.SNT C:\IRI\Python_Dash\ET_DSS_hist\TEST\                                            
SPECIES        MZCER047.SPE                                                                                 
ECOTYPE        MZCER047.ECO                                                                                 
CULTIVAR       MZCER047.CUL                                                                                 
PESTS          MZCER047.PST C:\DSSAT47\PEST\                                                                
SOILS          ET.SOL                                                                                       
WEATHER        AWAS8101.WTH                                                                                 
OUTPUT         OVERVIEW
*SIMULATION CONTROL 
                  34     1     S 1981165  2150 15102000                 
                   Y     Y     N     N     N     N     N     N     D
                   M     M     E     R     S     C     R     1     G     S     2     D     0
                   R     N     D     N     M
                   N     Y     Y     1     Y     Y     Y     Y     N     N     Y     N     Y
!AUTOMATIC MANAGEM  
               1984001 1984059   50.  100.   30.   40.   10.
                 30.   50.  100. GS000 IR001  10.0 0.800
                 30.   50.   25. FE001 GS000
                100.     1   20.
                     0 2000289  100.    0.
*EXP.DETAILS        
  1ETMZawas SN MELKSSAL                                                    
*TREATMENTS         
  1 1 0 0 ERiMA DCC1               
*CULTIVARS          
   MZ CIMT01 BH540-Kassie    
*FIELDS             
   AWAS0001 AWAS8101   0.0  -99.   -99  -99. 100.0   -99 L      200. ETET001_18
         -99.00000       -99.00000    -99.00               1.0  100.   1.0 -99.0   -99   -99
*INITIAL CONDITIONS 
   MZ    1981165     0     0  1.00  1.00   0.0     0  0.00  0.00  100.    0.
      5. 0.231 0.100  15.0
     15. 0.231 0.100  15.0
     20. 0.231 0.100  15.0
     35. 0.221 0.100  2.00
     50. 0.316 0.100   0.0
     65. 0.316 0.100   0.0
     81. 0.304 0.100   0.0
     97. 0.304 0.100   0.0
    118. 0.305 0.100   0.0
    140. 0.305 0.100   0.0
    170. 0.298 0.100   0.0
    200. 0.314 0.100   0.0
*PLANTING DETAILS   
   1981166     -99   6.0   6.0     S     R   75.  -99.   2.5  -99.  -99. -99.0 -99.0 -99.0
*IRRIGATION         
   1.000    0.    0.    0. GS000 IR001   0.0
*FERTILIZERS        
         0 FE005 AP002    5.   30.  -99.  -99.  -99.  -99.   -99
        45 FE005 AP002    5.   30.  -99.  -99.  -99.  -99.   -99
*RESIDUES           
*CHEMICALS          
*TILLAGE            
*ENVIRONMENT        
*HARVEST            
*SOIL               
 ETET001_18  Melkassa    L      200.   ET000_18                                        
 ET          Ethiopia      8.400  39.320 Vitric Andosols                                   
 BN     0.13   6.0  0.60   81.  1.00  0.70 IB00  IB00  IB00  -99  
    5.       0.166 0.260 0.433 1.000  1.32  1.20 1.500  22.0  36.0 -99.0 0.140  7.90-99.00 25.40-99.00
   15.       0.166 0.260 0.433 1.000  1.32  1.20 1.500  22.0  36.0 -99.0 0.140  7.90-99.00 25.40-99.00
   20.       0.166 0.260 0.433 1.000  1.32  1.20 1.500  22.0  36.0 -99.0 0.140  7.90-99.00 25.40-99.00
   35.       0.121 0.264 0.434 0.577  1.32  1.20 1.480  24.0  36.0 -99.0 0.110  8.00-99.00 27.40-99.00
   50.       0.121 0.316 0.466 0.100 0.230  1.10 1.460  36.0  38.0 -99.0 0.100  8.30-99.00 36.00-99.00
   65.       0.121 0.316 0.466 0.100 0.230  1.10 1.460  36.0  38.0 -99.0 0.100  8.30-99.00 36.00-99.00
   81.       0.134 0.304 0.477 0.000 0.230  1.00 1.400  28.0  44.0 -99.0 0.080  8.50-99.00 30.20-99.00
   97.       0.134 0.304 0.477 0.000 0.230  1.00 1.400  28.0  44.0 -99.0 0.080  8.50-99.00 30.20-99.00
  118.       0.156 0.305 0.433 0.000  1.32  1.28 0.980  25.0  45.0 -99.0 0.060  8.60-99.00 33.20-99.00
  140.       0.156 0.305 0.433 0.000  1.32  1.28 0.980  25.0  45.0 -99.0 0.060  8.60-99.00 33.20-99.00
  170.       0.162 0.298 0.428 0.000  1.32  1.36 0.780  26.0  38.0 -99.0 0.060  8.50-99.00 28.20-99.00
  200.       0.173 0.314 0.433 0.000 0.230  1.33 0.780  28.0  40.0 -99.0 0.050  8.30-99.00 39.20-99.00
                    
    5.-99.00 -99.0 -99.0 -99.0 -99.0 -99.0 -99.0 -99.0 -99.0 -99.0-99.00 -99.0 -99.0 -99.0 -99.0 -99.0  -99.
   15.-99.00 -99.0 -99.0 -99.0 -99.0 -99.0 -99.0 -99.0 -99.0 -99.0-99.00 -99.0 -99.0 -99.0 -99.0 -99.0  -99.
   20.-99.00 -99.0 -99.0 -99.0 -99.0 -99.0 -99.0 -99.0 -99.0 -99.0-99.00 -99.0 -99.0 -99.0 -99.0 -99.0  -99.
   35.-99.00 -99.0 -99.0 -99.0 -99.0 -99.0 -99.0 -99.0 -99.0 -99.0-99.00 -99.0 -99.0 -99.0 -99.0 -99.0  -99.
   50.-99.00 -99.0 -99.0 -99.0 -99.0 -99.0 -99.0 -99.0 -99.0 -99.0-99.00 -99.0 -99.0 -99.0 -99.0 -99.0  -99.
   65.-99.00 -99.0 -99.0 -99.0 -99.0 -99.0 -99.0 -99.0 -99.0 -99.0-99.00 -99.0 -99.0 -99.0 -99.0 -99.0  -99.
   81.-99.00 -99.0 -99.0 -99.0 -99.0 -99.0 -99.0 -99.0 -99.0 -99.0-99.00 -99.0 -99.0 -99.0 -99.0 -99.0  -99.
   97.-99.00 -99.0 -99.0 -99.0 -99.0 -99.0 -99.0 -99.0 -99.0 -99.0-99.00 -99.0 -99.0 -99.0 -99.0 -99.0  -99.
  118.-99.00 -99.0 -99.0 -99.0 -99.0 -99.0 -99.0 -99.0 -99.0 -99.0-99.00 -99.0 -99.0 -99.0 -99.0 -99.0  -99.
  140.-99.00 -99.0 -99.0 -99.0 -99.0 -99.0 -99.0 -99.0 -99.0 -99.0-99.00 -99.0 -99.0 -99.0 -99.0 -99.0  -99.
  170.-99.00 -99.0 -99.0 -99.0 -99.0 -99.0 -99.0 -99.0 -99.0 -99.0-99.00 -99.0 -99.0 -99.0 -99.0 -99.0  -99.
  200.-99.00 -99.0 -99.0 -99.0 -99.0 -99.0 -99.0 -99.0 -99.0 -99.0-99.00 -99.0 -99.0 -99.0 -99.0 -99.0  -99.
                    
    5.-99.00-99.00-99.00-99.00
   15.-99.00-99.00-99.00-99.00
   20.-99.00-99.00-99.00-99.00
   35.-99.00-99.00-99.00-99.00
   50.-99.00-99.00-99.00-99.00
   65.-99.00-99.00-99.00-99.00
   81.-99.00-99.00-99.00-99.00
   97.-99.00-99.00-99.00-99.00
  118.-99.00-99.00-99.00-99.00
  140.-99.00-99.00-99.00-99.00
  170.-99.00-99.00-99.00-99.00
  200.-99.00-99.00-99.00-99.00
*CULTIVAR           
CIMT01 BH540-Kassie     IB0001  220.1 0.860 840.1 266.2 10.65 38.90
