*SOIL-PLANT-ATMOSPHERE MODULE OUTPUT FILE

*DSSAT Cropping System Model Ver. 4.7.5.008 -release  MAY 04, 2021 17:13:31

*RUN   1        : ET-SIMAGRI                MZCER047 ETMZdddd    1
 MODEL          : MZCER047 - Maize
 EXPERIMENT     : ETMZdddd SN MELKSSAL
 DATA PATH      : C:\IRI\Python_Dash\ET_DSS_hist\TEST\
 TREATMENT  1   : ET-SIMAGRI                MZCER047
  
!                                                                                                                                                                                        Soil evaporation (mm/d) by soil depth (cm):
!                                                                                                                                                                                        0-5    5-15   15-20   20-35   35-50   50-65   65-81   81-97  97-118 118-200
@YEAR DOY   DAS   SRAA  TMAXA  TMINA    REFA    EOAA    EOPA    EOSA    KCAA    KCBA    KEAA    ETAA    EPAA    ESAA    EFAA    EMAA    EOAC    ETAC    EPAC    ESAC    EFAC    EMAC    ES1D    ES2D    ES3D    ES4D    ES5D    ES6D    ES7D    ES8D    ES9D   ES10D   TRWUD
 1981 165     1  21.00  29.40  14.70 -99.000   5.502   0.000   5.502 -99.000 -99.000 -99.000   1.007   0.000   1.007   0.000   0.000    5.50    1.01    0.00    1.01    0.00    0.00   0.824   0.105   0.017   0.022   0.015   0.008   0.005   0.003   0.003   0.006   0.000
 1981 166     2  19.00  28.70  15.50 -99.000   4.948   0.000   4.948 -99.000 -99.000 -99.000   0.932   0.000   0.932   0.000   0.000   10.45    1.94    0.00    1.94    0.00    0.00   0.749   0.104   0.017   0.022   0.015   0.008   0.005   0.003   0.003   0.006   0.000
 1981 167     3  21.90  31.20  14.90 -99.000   5.819   0.000   5.819 -99.000 -99.000 -99.000   0.863   0.000   0.863   0.000   0.000   16.27    2.80    0.00    2.80    0.00    0.00   0.681   0.104   0.017   0.021   0.015   0.008   0.005   0.003   0.003   0.006   0.000
 1981 168     4  20.10  28.90  16.60 -99.000   5.253   0.000   5.253 -99.000 -99.000 -99.000   0.800   0.000   0.800   0.000   0.000   21.52    3.60    0.00    3.60    0.00    0.00   0.619   0.103   0.017   0.021   0.015   0.008   0.005   0.003   0.003   0.006   0.000
 1981 169     5  22.60  32.30  14.90 -99.000   6.040   0.000   6.040 -99.000 -99.000 -99.000   0.743   0.000   0.743   0.000   0.000   27.56    4.35    0.00    4.35    0.00    0.00   0.563   0.102   0.017   0.021   0.015   0.008   0.005   0.003   0.003   0.006   0.000
 1981 170     6  20.20  28.90  16.30 -99.000   5.237   0.000   5.237 -99.000 -99.000 -99.000   0.691   0.000   0.691   0.000   0.000   32.80    5.04    0.00    5.04    0.00    0.00   0.512   0.102   0.017   0.021   0.015   0.008   0.005   0.003   0.003   0.006   0.000
 1981 171     7  19.10  28.00  16.10 -99.000   4.881   0.000   4.881 -99.000 -99.000 -99.000   0.644   0.000   0.644   0.000   0.000   37.68    5.68    0.00    5.68    0.00    0.00   0.465   0.101   0.017   0.021   0.015   0.008   0.005   0.003   0.003   0.006   0.000
 1981 172     8  19.10  27.50  15.90 -99.000   4.833   0.011   4.822 -99.000 -99.000 -99.000   0.612   0.011   0.601   0.000   0.000   42.51    6.29    0.01    6.28    0.00    0.00   0.423   0.101   0.017   0.021   0.015   0.008   0.005   0.003   0.003   0.006   0.001
 1981 173     9  20.30  30.00  15.40 -99.000   5.252   0.023   5.229 -99.000 -99.000 -99.000   0.585   0.023   0.562   0.000   0.000   47.76    6.88    0.03    6.84    0.00    0.00   0.384   0.100   0.017   0.021   0.015   0.008   0.005   0.003   0.003   0.006   0.002
 1981 174    10  21.90  31.00  14.80 -99.000   5.692   0.041   5.651 -99.000 -99.000 -99.000   0.567   0.041   0.526   0.000   0.000   53.46    7.45    0.08    7.37    0.00    0.00   0.349   0.099   0.017   0.021   0.015   0.008   0.005   0.003   0.003   0.006   0.004
 1981 175    11  19.70  28.00  16.80 -99.000   5.013   0.051   4.962 -99.000 -99.000 -99.000   0.791   0.051   0.739   0.000   0.000   58.47    8.24    0.13    8.11    0.00    0.00   0.563   0.098   0.017   0.021   0.015   0.008   0.005   0.003   0.003   0.006   0.005
 1981 176    12  21.20  30.20  14.50 -99.000   5.559   0.110   5.449 -99.000 -99.000 -99.000   1.187   0.110   1.077   0.000   0.000   64.03    9.42    0.24    9.19    0.00    0.00   0.899   0.101   0.017   0.021   0.015   0.008   0.005   0.003   0.003   0.006   0.011
 1981 177    13  20.40  29.10  15.10 -99.000   5.352   0.167   5.185 -99.000 -99.000 -99.000   1.302   0.167   1.135   0.000   0.000   69.38   10.73    0.40   10.32    0.00    0.00   0.955   0.103   0.017   0.021   0.015   0.008   0.005   0.003   0.003   0.006   0.017
 1981 178    14  17.30  25.40  16.60 -99.000   4.368   0.192   4.175 -99.000 -99.000 -99.000   1.230   0.192   1.039   0.000   0.000   73.75   11.96    0.59   11.36    0.00    0.00   0.859   0.102   0.017   0.021   0.015   0.008   0.005   0.003   0.003   0.006   0.019
 1981 179    15  18.40  28.50  16.60 -99.000   4.784   0.270   4.513 -99.000 -99.000 -99.000   1.219   0.270   0.950   0.000   0.000   78.53   13.18    0.86   12.31    0.00    0.00   0.771   0.101   0.017   0.021   0.015   0.008   0.005   0.003   0.003   0.006   0.027
 1981 180    16  20.50  30.10  15.60 -99.000   5.352   0.386   4.964 -99.000 -99.000 -99.000   1.333   0.320   1.013   0.000   0.000   83.89   14.51    1.18   13.32    0.00    0.00   0.835   0.100   0.017   0.021   0.015   0.008   0.005   0.003   0.003   0.006   0.032
 1981 181    17  19.90  29.00  15.60 -99.000   5.176   0.422   4.752 -99.000 -99.000 -99.000   1.496   0.422   1.074   0.000   0.000   89.06   16.00    1.61   14.40    0.00    0.00   0.898   0.099   0.016   0.021   0.015   0.008   0.005   0.003   0.003   0.006   0.042
 1981 182    18  13.30  24.80  16.10 -99.000   3.280   0.331   2.947 -99.000 -99.000 -99.000   1.299   0.331   0.968   0.000   0.000   92.34   17.30    1.94   15.37    0.00    0.00   0.793   0.098   0.016   0.021   0.015   0.008   0.005   0.003   0.003   0.006   0.033
 1981 183    19  16.80  25.80  15.30 -99.000   4.138   0.487   3.648 -99.000 -99.000 -99.000   1.311   0.429   0.881   0.000   0.000   96.48   18.61    2.37   16.25    0.00    0.00   0.708   0.097   0.016   0.021   0.014   0.008   0.005   0.003   0.003   0.006   0.043
 1981 184    20  22.10  28.20  15.50 -99.000   5.578   0.717   4.858 -99.000 -99.000 -99.000   1.417   0.416   1.001   0.000   0.000  102.06   20.03    2.78   17.25    0.00    0.00   0.828   0.097   0.016   0.021   0.014   0.008   0.005   0.003   0.003   0.006   0.042
 1981 185    21  21.10  27.30  15.40 -99.000   5.337   0.721   4.612 -99.000 -99.000 -99.000   5.333   0.721   4.612   0.000   0.000  107.40   25.36    3.50   21.86    0.00    0.00   0.889   0.533   0.168   0.399   0.451   0.366   0.312   0.272   0.306   0.914   0.072
 1981 186    22  19.60  26.60  15.90 -99.000   4.928   0.789   4.134 -99.000 -99.000 -99.000   4.924   0.789   4.134   0.000   0.000  112.32   30.29    4.29   25.99    0.00    0.00   0.765   0.495   0.148   0.357   0.406   0.330   0.282   0.246   0.277   0.828   0.079
 1981 187    23  21.60  28.30  16.10 -99.000   5.490   1.045   4.439 -99.000 -99.000 -99.000   2.097   1.045   1.051   0.000   0.000  117.81   32.38    5.34   27.05    0.00    0.00   0.876   0.101   0.015   0.020   0.014   0.008   0.005   0.003   0.003   0.006   0.105
 1981 188    24  22.60  29.80  14.50 -99.000   5.711   1.282   4.422 -99.000 -99.000 -99.000   2.208   1.282   0.926   0.000   0.000  123.52   34.59    6.62   27.97    0.00    0.00   0.754   0.098   0.015   0.020   0.014   0.008   0.005   0.003   0.003   0.006   0.128
 1981 189    25  19.70  27.20  16.40 -99.000   4.862   1.221   3.635 -99.000 -99.000 -99.000   1.938   1.113   0.825   0.000   0.000  128.39   36.53    7.73   28.80    0.00    0.00   0.658   0.094   0.015   0.020   0.014   0.008   0.005   0.003   0.003   0.006   0.111
 1981 190    26  15.90  24.10  15.40 -99.000   3.731   1.015   2.710 -99.000 -99.000 -99.000   1.769   1.015   0.754   0.000   0.000  132.12   38.30    8.75   29.55    0.00    0.00   0.591   0.090   0.014   0.020   0.014   0.008   0.005   0.003   0.003   0.006   0.102
 1981 191    27  17.50  24.40  14.40 -99.000   4.066   1.193   2.866 -99.000 -99.000 -99.000   2.151   1.114   1.037   0.000   0.000  136.18   40.45    9.86   30.59    0.00    0.00   0.868   0.096   0.014   0.019   0.014   0.008   0.005   0.003   0.003   0.006   0.111
 1981 192    28  15.20  25.10  15.30 -99.000   3.659   1.137   2.516 -99.000 -99.000 -99.000   3.652   1.137   2.516   0.000   0.000  139.84   44.10   11.00   33.10    0.00    0.00   0.552   0.326   0.097   0.190   0.231   0.188   0.161   0.140   0.158   0.474   0.114
 1981 193    29  15.30  25.20  15.30 -99.000   3.680   1.269   2.403 -99.000 -99.000 -99.000   3.672   1.269   2.403   0.000   0.000  143.52   47.77   12.27   35.51    0.00    0.00   0.515   0.354   0.117   0.208   0.210   0.169   0.143   0.125   0.141   0.422   0.127
 1981 194    30  22.20  27.60  15.70 -99.000   5.475   2.080   3.384 -99.000 -99.000 -99.000   5.464   2.080   3.384   0.000   0.000  149.00   53.24   14.35   38.89    0.00    0.00   0.629   0.473   0.161   0.347   0.311   0.248   0.210   0.183   0.206   0.616   0.208
 1981 195    31  18.60  26.90  14.80 -99.000   4.446   1.869   2.567 -99.000 -99.000 -99.000   4.436   1.869   2.567   0.000   0.000  153.44   57.67   16.22   41.46    0.00    0.00   0.444   0.340   0.116   0.268   0.243   0.195   0.166   0.145   0.163   0.486   0.187
 1981 196    32  18.20  25.90  15.50 -99.000   4.287   1.951   2.324 -99.000 -99.000 -99.000   3.040   1.951   1.088   0.000   0.000  157.73   60.71   18.17   42.54    0.00    0.00   0.887   0.117   0.020   0.026   0.015   0.008   0.005   0.003   0.003   0.006   0.195
 1981 197    33  20.20  26.40  14.00 -99.000   4.687   2.294   2.380 -99.000 -99.000 -99.000   3.258   2.294   0.964   0.000   0.000  162.42   63.97   20.46   43.51    0.00    0.00   0.769   0.111   0.019   0.026   0.015   0.008   0.005   0.003   0.003   0.006   0.229
 1981 198    34  17.80  25.80  15.10 -99.000   4.103   2.159   1.932 -99.000 -99.000 -99.000   3.276   2.159   1.117   0.000   0.000  166.52   67.25   22.62   44.63    0.00    0.00   0.923   0.112   0.018   0.026   0.015   0.008   0.005   0.003   0.003   0.006   0.216
 1981 199    35  19.50  25.90  14.70 -99.000   4.505   2.527   1.963 -99.000 -99.000 -99.000   4.490   2.527   1.963   0.000   0.000  171.02   71.74   25.15   46.59    0.00    0.00   0.409   0.250   0.079   0.191   0.178   0.144   0.123   0.107   0.121   0.359   0.253
 1981 200    36  18.40  25.20  15.60 -99.000   4.236   2.512   1.710 -99.000 -99.000 -99.000   4.222   2.512   1.710   0.000   0.000  175.26   75.96   27.66   48.30    0.00    0.00   0.323   0.223   0.075   0.172   0.158   0.128   0.109   0.095   0.107   0.319   0.251
 1981 201    37  16.70  24.60  16.00 -99.000   3.790   2.360   1.416 -99.000 -99.000 -99.000   3.776   2.360   1.416   0.000   0.000  179.05   79.74   30.02   49.72    0.00    0.00   0.285   0.181   0.061   0.143   0.129   0.105   0.089   0.077   0.087   0.259   0.236
 1981 202    38  19.10  25.80  16.20 -99.000   4.404   2.864   1.524 -99.000 -99.000 -99.000   4.388   2.864   1.524   0.000   0.000  183.45   84.12   32.88   51.24    0.00    0.00   0.290   0.197   0.067   0.156   0.141   0.114   0.097   0.085   0.095   0.283   0.286
 1981 203    39  16.50  24.40  14.90 -99.000   3.669   2.483   1.171 -99.000 -99.000 -99.000   3.654   2.483   1.171   0.000   0.000  187.12   87.78   35.37   52.41    0.00    0.00   0.208   0.147   0.050   0.121   0.112   0.091   0.077   0.067   0.076   0.224   0.248
 1981 204    40  19.70  25.40  14.60 -99.000   4.400   3.076   1.306 -99.000 -99.000 -99.000   4.383   3.076   1.306   0.000   0.000  191.52   92.16   38.44   53.72    0.00    0.00   0.254   0.176   0.060   0.131   0.119   0.096   0.082   0.071   0.080   0.237   0.308
 1981 205    41  21.50  25.80  14.90 -99.000   4.844   3.489   1.334 -99.000 -99.000 -99.000   4.824   3.489   1.334   0.000   0.000  196.37   96.98   41.93   55.05    0.00    0.00   0.279   0.193   0.067   0.132   0.117   0.094   0.079   0.069   0.077   0.227   0.349
 1981 206    42  18.60  24.80  15.20 -99.000   4.135   3.062   1.055 -99.000 -99.000 -99.000   4.117   3.062   1.055   0.000   0.000  200.50  101.10   45.00   56.11    0.00    0.00   0.218   0.152   0.054   0.107   0.094   0.075   0.063   0.054   0.061   0.178   0.306
 1981 207    43  13.70  21.80  15.00 -99.000   2.922   2.214   0.694 -99.000 -99.000 -99.000   2.908   2.214   0.694   0.000   0.000  203.42  104.01   47.21   56.80    0.00    0.00   0.142   0.099   0.035   0.071   0.062   0.050   0.042   0.036   0.040   0.117   0.221
 1981 208    44  19.70  24.40  14.40 -99.000   4.309   3.316   0.973 -99.000 -99.000 -99.000   4.289   3.316   0.973   0.000   0.000  207.73  108.30   50.53   57.77    0.00    0.00   0.201   0.133   0.050   0.099   0.088   0.071   0.059   0.051   0.056   0.165   0.332
 1981 209    45  19.20  24.60  15.10 -99.000   4.225   3.294   0.912 -99.000 -99.000 -99.000   4.206   3.294   0.912   0.000   0.000  211.96  112.51   53.82   58.69    0.00    0.00   0.188   0.121   0.046   0.092   0.082   0.067   0.057   0.049   0.054   0.158   0.329
 1981 210    46  13.90  23.70  15.30 -99.000   3.026   2.384   0.627 -99.000 -99.000 -99.000   3.012   2.384   0.627   0.000   0.000  214.98  115.52   56.20   59.31    0.00    0.00   0.129   0.084   0.031   0.063   0.056   0.046   0.039   0.034   0.037   0.109   0.238
 1981 211    47  15.40  24.40  15.00 -99.000   3.369   2.677   0.677 -99.000 -99.000 -99.000   3.354   2.677   0.677   0.000   0.000  218.35  118.87   58.88   59.99    0.00    0.00   0.137   0.097   0.034   0.070   0.060   0.049   0.041   0.036   0.039   0.115   0.268
 1981 212    48  14.70  23.10  14.60 -99.000   3.152   2.520   0.617 -99.000 -99.000 -99.000   3.137   2.520   0.617   0.000   0.000  221.50  122.01   61.40   60.61    0.00    0.00   0.124   0.084   0.031   0.064   0.056   0.045   0.038   0.033   0.036   0.106   0.252
 1981 213    49  20.40  26.00  13.40 -99.000   4.484   3.599   0.864 -99.000 -99.000 -99.000   4.463   3.599   0.864   0.000   0.000  225.99  126.47   65.00   61.47    0.00    0.00   0.173   0.114   0.043   0.087   0.078   0.064   0.054   0.047   0.052   0.151   0.360
 1981 214    50  13.70  24.60  15.70 -99.000   3.014   2.428   0.572 -99.000 -99.000 -99.000   3.000   2.428   0.572   0.000   0.000  229.00  129.47   67.43   62.04    0.00    0.00   0.114   0.078   0.028   0.060   0.052   0.042   0.036   0.031   0.034   0.099   0.243
 1981 215    51  20.00  25.60  14.70 -99.000   4.417   3.576   0.820 -99.000 -99.000 -99.000   4.396   3.576   0.820   0.000   0.000  233.42  133.87   71.00   62.86    0.00    0.00   0.150   0.112   0.038   0.087   0.076   0.061   0.052   0.045   0.050   0.149   0.358
 1981 216    52  18.30  24.60  15.80 -99.000   4.015   3.270   0.727 -99.000 -99.000 -99.000   3.997   3.270   0.727   0.000   0.000  237.43  137.86   74.27   63.59    0.00    0.00   0.127   0.096   0.032   0.076   0.068   0.056   0.047   0.041   0.046   0.137   0.327
 1981 217    53  19.70  24.80  15.70 -99.000   4.325   3.529   0.776 -99.000 -99.000 -99.000   4.304   3.529   0.776   0.000   0.000  241.76  142.17   77.80   64.37    0.00    0.00   0.132   0.099   0.034   0.082   0.074   0.060   0.051   0.045   0.050   0.150   0.353
 1981 218    54  20.50  25.10  15.20 -99.000   4.496   3.668   0.807 -99.000 -99.000 -99.000   4.475   3.668   0.807   0.000   0.000  246.26  146.64   81.47   65.17    0.00    0.00   0.153   0.110   0.038   0.082   0.073   0.059   0.051   0.044   0.050   0.148   0.367
 1981 219    55  23.00  25.30  14.30 -99.000   5.040   4.102   0.914 -99.000 -99.000 -99.000   5.016   4.102   0.914   0.000   0.000  251.30  151.66   85.57   66.09    0.00    0.00   0.171   0.124   0.042   0.093   0.083   0.068   0.058   0.050   0.057   0.169   0.410
 1981 220    56  22.20  25.70  13.50 -99.000   4.848   3.932   0.893 -99.000 -99.000 -99.000   4.825   3.932   0.893   0.000   0.000  256.14  156.48   89.50   66.98    0.00    0.00   0.157   0.117   0.040   0.092   0.083   0.068   0.058   0.051   0.057   0.170   0.393
 1981 221    57  22.30  26.20  15.60 -99.000   4.979   4.021   0.935 -99.000 -99.000 -99.000   4.957   4.021   0.935   0.000   0.000  261.12  161.44   93.53   67.91    0.00    0.00   0.159   0.118   0.040   0.097   0.087   0.072   0.063   0.054   0.061   0.183   0.402
 1981 222    58  18.30  25.20  15.30 -99.000   4.028   3.238   0.771 -99.000 -99.000 -99.000   4.010   3.238   0.771   0.000   0.000  265.15  165.45   96.76   68.69    0.00    0.00   0.125   0.094   0.032   0.080   0.073   0.061   0.053   0.046   0.052   0.155   0.324
 1981 223    59  16.90  25.20  15.90 -99.000   3.738   2.989   0.732 -99.000 -99.000 -99.000   3.721   2.989   0.732   0.000   0.000  268.89  169.17   99.75   69.42    0.00    0.00   0.612   0.069   0.011   0.016   0.009   0.005   0.003   0.002   0.002   0.004   0.299
 1981 224    60  13.10  23.20  16.30 -99.000   2.846   2.263   0.570 -99.000 -99.000 -99.000   2.833   2.263   0.570   0.000   0.000  271.74  172.00  102.02   69.99    0.00    0.00   0.118   0.074   0.023   0.053   0.049   0.042   0.037   0.032   0.036   0.107   0.226
 1981 225    61  21.00  24.60  15.10 -99.000   4.613   3.644   0.948 -99.000 -99.000 -99.000   4.592   3.644   0.948   0.000   0.000  276.35  176.60  105.66   70.94    0.00    0.00   0.207   0.132   0.045   0.089   0.077   0.065   0.058   0.050   0.057   0.169   0.364
 1981 226    62  21.00  25.30  15.40 -99.000   4.666   3.663   0.983 -99.000 -99.000 -99.000   4.646   3.663   0.983   0.000   0.000  281.01  181.24  109.32   71.92    0.00    0.00   0.208   0.136   0.050   0.097   0.081   0.067   0.060   0.052   0.059   0.175   0.366
 1981 227    63  20.40  25.30  14.60 -99.000   4.506   3.513   0.972 -99.000 -99.000 -99.000   4.485   3.513   0.972   0.000   0.000  285.52  185.73  112.84   72.89    0.00    0.00   0.181   0.129   0.045   0.101   0.088   0.070   0.062   0.054   0.061   0.182   0.351
 1981 228    64  14.40  23.50  15.30 -99.000   3.125   2.420   0.691 -99.000 -99.000 -99.000   3.111   2.420   0.691   0.000   0.000  288.65  188.84  115.26   73.58    0.00    0.00   0.131   0.090   0.031   0.071   0.063   0.051   0.044   0.038   0.043   0.129   0.242
 1981 229    65  21.90  25.20  14.80 -99.000   4.842   3.724   1.097 -99.000 -99.000 -99.000   4.821   3.724   1.097   0.000   0.000  293.49  193.66  118.98   74.68    0.00    0.00   0.217   0.143   0.049   0.111   0.099   0.079   0.069   0.060   0.068   0.202   0.372
 1981 230    66  25.00  27.30  13.50 -99.000   5.615   4.289   1.301 -99.000 -99.000 -99.000   5.590   4.289   1.301   0.000   0.000  299.10  199.25  123.27   75.98    0.00    0.00   0.270   0.170   0.059   0.129   0.115   0.091   0.081   0.070   0.079   0.237   0.429
 1981 231    67  25.70  26.60  13.80 -99.000   5.752   4.365   1.362 -99.000 -99.000 -99.000   5.727   4.365   1.362   0.000   0.000  304.85  204.98  127.63   77.34    0.00    0.00   0.258   0.178   0.061   0.139   0.125   0.098   0.087   0.076   0.085   0.255   0.437
 1981 232    68  21.80  25.10  15.10 -99.000   4.832   3.644   1.168 -99.000 -99.000 -99.000   4.811   3.644   1.168   0.000   0.000  309.69  209.79  131.28   78.51    0.00    0.00   0.224   0.150   0.051   0.117   0.108   0.084   0.075   0.065   0.074   0.220   0.364
 1981 233    69  22.10  24.50  14.00 -99.000   4.830   3.618   1.191 -99.000 -99.000 -99.000   4.808   3.618   1.191   0.000   0.000  314.52  214.60  134.90   79.70    0.00    0.00   0.219   0.156   0.052   0.118   0.110   0.086   0.078   0.068   0.076   0.228   0.362
 1981 234    70  17.60  24.20  15.10 -99.000   3.863   2.874   0.972 -99.000 -99.000 -99.000   3.846   2.874   0.972   0.000   0.000  318.38  218.44  137.77   80.67    0.00    0.00   0.192   0.137   0.047   0.094   0.086   0.066   0.060   0.053   0.059   0.178   0.287
 1981 235    71  19.30  24.60  16.00 -99.000   4.314   3.170   1.126 -99.000 -99.000 -99.000   4.295   3.170   1.126   0.000   0.000  322.69  222.74  140.94   81.80    0.00    0.00   0.213   0.157   0.054   0.114   0.101   0.080   0.071   0.061   0.069   0.206   0.317
 1981 236    72  17.90  24.00  15.30 -99.000   3.943   2.860   1.066 -99.000 -99.000 -99.000   3.926   2.860   1.066   0.000   0.000  326.64  226.66  143.80   82.86    0.00    0.00   0.189   0.142   0.048   0.109   0.100   0.081   0.069   0.060   0.067   0.200   0.286
 1981 237    73  19.80  24.90  15.50 -99.000   4.417   3.163   1.235 -99.000 -99.000 -99.000   4.306   3.163   1.142   0.000   0.000  331.05  230.97  146.96   84.01    0.00    0.00   0.938   0.120   0.020   0.026   0.014   0.008   0.005   0.003   0.003   0.006   0.316
 1981 238    74  18.70  25.00  15.80 -99.000   4.185   2.959   1.210 -99.000 -99.000 -99.000   4.168   2.959   1.210   0.000   0.000  335.24  235.14  149.92   85.22    0.00    0.00   0.229   0.161   0.055   0.121   0.110   0.089   0.077   0.067   0.075   0.224   0.296
 1981 239    75  21.10  25.30  14.90 -99.000   4.746   3.311   1.416 -99.000 -99.000 -99.000   4.727   3.311   1.416   0.000   0.000  339.98  239.86  153.23   86.63    0.00    0.00   0.270   0.187   0.064   0.143   0.129   0.105   0.090   0.078   0.088   0.261   0.331
 1981 240    76  22.90  26.10  14.30 -99.000   5.164   3.554   1.589 -99.000 -99.000 -99.000   5.143   3.554   1.589   0.000   0.000  345.15  245.01  156.79   88.22    0.00    0.00   0.283   0.208   0.070   0.162   0.149   0.121   0.104   0.090   0.101   0.301   0.355
 1981 241    77  22.40  25.80  14.20 -99.000   5.028   3.415   1.594 -99.000 -99.000 -99.000   4.531   3.415   1.117   0.000   0.000  350.18  249.54  160.20   89.34    0.00    0.00   0.919   0.116   0.019   0.025   0.014   0.008   0.005   0.003   0.003   0.006   0.341
 1981 242    78  19.50  25.00  15.30 -99.000   4.371   2.928   1.426 -99.000 -99.000 -99.000   4.354   2.928   1.426   0.000   0.000  354.55  253.89  163.13   90.76    0.00    0.00   0.270   0.192   0.065   0.139   0.128   0.105   0.092   0.080   0.089   0.266   0.293
 1981 243    79  17.70  24.20  16.40 -99.000   4.004   2.646   1.343 -99.000 -99.000 -99.000   3.989   2.646   1.343   0.000   0.000  358.55  257.88  165.78   92.11    0.00    0.00   0.257   0.181   0.061   0.134   0.121   0.098   0.085   0.074   0.083   0.248   0.265
 1981 244    80  16.50  23.40  14.50 -99.000   3.630   2.366   1.250 -99.000 -99.000 -99.000   3.616   2.366   1.250   0.000   0.000  362.18  261.50  168.14   93.36    0.00    0.00   0.223   0.166   0.056   0.129   0.118   0.093   0.081   0.070   0.079   0.235   0.237
 1981 245    81  27.40  26.80  13.80 -99.000   6.244   4.015   2.206 -99.000 -99.000 -99.000   5.158   4.015   1.143   0.000   0.000  368.42  266.66  172.16   94.50    0.00    0.00   0.940   0.119   0.019   0.026   0.014   0.008   0.005   0.003   0.003   0.006   0.401
 1981 246    82  20.30  25.40  14.40 -99.000   4.567   2.896   1.654 -99.000 -99.000 -99.000   3.903   2.896   1.007   0.000   0.000  372.99  270.56  175.05   95.51    0.00    0.00   0.812   0.113   0.019   0.025   0.014   0.008   0.005   0.003   0.003   0.006   0.290
 1981 247    83  22.20  26.00  13.90 -99.000   5.006   3.133   1.855 -99.000 -99.000 -99.000   4.988   3.133   1.855   0.000   0.000  378.00  275.55  178.19   97.36    0.00    0.00   0.338   0.240   0.079   0.180   0.173   0.138   0.123   0.107   0.120   0.358   0.313
 1981 248    84  19.00  24.30  14.40 -99.000   4.264   2.632   1.616 -99.000 -99.000 -99.000   4.249   2.632   1.616   0.000   0.000  382.26  279.80  180.82   98.98    0.00    0.00   0.356   0.216   0.072   0.147   0.138   0.111   0.100   0.087   0.098   0.291   0.263
 1981 249    85  20.80  25.20  14.80 -99.000   4.746   2.891   1.838 -99.000 -99.000 -99.000   4.729   2.891   1.838   0.000   0.000  387.01  284.52  183.71  100.81    0.00    0.00   0.355   0.249   0.084   0.182   0.162   0.130   0.117   0.102   0.115   0.341   0.289
 1981 250    86  20.10  25.70  14.70 -99.000   4.593   2.760   1.817 -99.000 -99.000 -99.000   4.577   2.760   1.817   0.000   0.000  391.60  289.10  186.47  102.63    0.00    0.00   0.367   0.255   0.088   0.183   0.158   0.123   0.111   0.097   0.109   0.325   0.276
 1981 251    87  23.80  26.50  15.00 -99.000   5.541   3.284   2.238 -99.000 -99.000 -99.000   5.522   3.284   2.238   0.000   0.000  397.14  294.62  189.75  104.87    0.00    0.00   0.424   0.308   0.106   0.231   0.204   0.160   0.140   0.121   0.136   0.407   0.328
 1981 252    88  22.70  26.30  15.70 -99.000   5.279   3.087   2.175 -99.000 -99.000 -99.000   5.262   3.087   2.175   0.000   0.000  402.42  299.89  192.84  107.05    0.00    0.00   0.385   0.289   0.099   0.226   0.204   0.166   0.141   0.121   0.136   0.407   0.309
 1981 253    89  20.50  25.40  15.80 -99.000   4.717   2.720   1.981 -99.000 -99.000 -99.000   3.829   2.720   1.109   0.000   0.000  407.14  303.72  195.56  108.15    0.00    0.00   0.908   0.117   0.020   0.026   0.014   0.008   0.005   0.003   0.003   0.005   0.272
 1981 254    90  17.30  24.40  15.30 -99.000   3.913   2.226   1.674 -99.000 -99.000 -99.000   3.900   2.226   1.674   0.000   0.000  411.05  307.62  197.79  109.83    0.00    0.00   0.302   0.218   0.074   0.168   0.156   0.128   0.110   0.094   0.106   0.318   0.223
 1981 255    91  21.30  24.80  14.50 -99.000   4.852   2.722   2.113 -99.000 -99.000 -99.000   4.836   2.722   2.113   0.000   0.000  415.90  312.45  200.51  111.94    0.00    0.00   0.394   0.279   0.094   0.207   0.193   0.159   0.138   0.118   0.133   0.398   0.272
 1981 256    92  18.10  23.80  15.40 -99.000   4.093   2.266   1.814 -99.000 -99.000 -99.000   3.417   2.266   1.151   0.000   0.000  420.00  315.87  202.77  113.09    0.00    0.00   0.954   0.116   0.019   0.024   0.014   0.008   0.005   0.003   0.003   0.005   0.227
 1981 257    93  14.80  23.30  15.40 -99.000   3.322   1.814   1.497 -99.000 -99.000 -99.000   3.311   1.814   1.497   0.000   0.000  423.32  319.18  204.59  114.59    0.00    0.00   0.275   0.197   0.065   0.142   0.137   0.113   0.099   0.085   0.096   0.287   0.181
 1981 258    94  20.10  24.90  16.10 -99.000   4.657   2.510   2.133 -99.000 -99.000 -99.000   4.642   2.510   2.133   0.000   0.000  427.97  323.82  207.10  116.72    0.00    0.00   0.454   0.287   0.095   0.193   0.183   0.152   0.134   0.115   0.130   0.389   0.251
 1981 259    95  20.70  25.30  15.60 -99.000   4.828   2.567   2.246 -99.000 -99.000 -99.000   4.813   2.567   2.246   0.000   0.000  432.80  328.63  209.67  118.97    0.00    0.00   0.501   0.308   0.107   0.205   0.185   0.155   0.137   0.118   0.133   0.398   0.257
 1981 260    96  22.50  26.00  13.80 -99.000   5.222   2.740   2.466 -99.000 -99.000 -99.000   5.206   2.740   2.466   0.000   0.000  438.02  333.84  212.41  121.43    0.00    0.00   0.480   0.334   0.115   0.248   0.212   0.176   0.157   0.135   0.152   0.456   0.274
 1981 261    97  17.30  24.30  15.30 -99.000   3.961   2.051   1.898 -99.000 -99.000 -99.000   3.950   2.051   1.898   0.000   0.000  441.99  337.79  214.46  123.33    0.00    0.00   0.381   0.254   0.088   0.195   0.161   0.133   0.120   0.103   0.116   0.348   0.205
 1981 262    98  18.90  24.10  15.40 -99.000   4.346   2.221   2.112 -99.000 -99.000 -99.000   4.333   2.221   2.112   0.000   0.000  446.33  342.12  216.68  125.44    0.00    0.00   0.446   0.306   0.104   0.219   0.179   0.140   0.125   0.107   0.121   0.363   0.222
 1981 263    99  22.90  25.00  15.10 -99.000   5.328   2.688   2.625 -99.000 -99.000 -99.000   5.313   2.688   2.625   0.000   0.000  451.66  347.44  219.37  128.07    0.00    0.00   0.493   0.371   0.126   0.277   0.243   0.188   0.163   0.141   0.159   0.465   0.269
 1981 264   100  23.80  26.30  16.50 -99.000   5.654   2.816   2.822 -99.000 -99.000 -99.000   5.638   2.816   2.822   0.000   0.000  457.31  353.07  222.18  130.89    0.00    0.00   0.539   0.385   0.133   0.291   0.260   0.209   0.178   0.155   0.174   0.499   0.282
 1981 265   101  18.40  25.10  15.00 -99.000   4.276   2.102   2.162 -99.000 -99.000 -99.000   4.263   2.102   2.162   0.000   0.000  461.59  357.34  224.28  133.05    0.00    0.00   0.444   0.287   0.102   0.217   0.196   0.158   0.134   0.116   0.131   0.375   0.210
 1981 266   102  21.40  25.70  14.70 -99.000   5.018   2.436   2.569 -99.000 -99.000 -99.000   5.004   2.436   2.569   0.000   0.000  466.61  362.34  226.72  135.62    0.00    0.00   0.485   0.338   0.117   0.264   0.240   0.193   0.165   0.143   0.161   0.462   0.244
 1981 267   103  23.20  26.50  13.00 -99.000   5.390   2.583   2.792 -99.000 -99.000 -99.000   5.375   2.583   2.792   0.000   0.000  472.00  367.72  229.30  138.41    0.00    0.00   0.495   0.365   0.126   0.286   0.264   0.214   0.184   0.160   0.180   0.518   0.258
 1981 268   104  22.10  25.80  13.70 -99.000   5.112   2.419   2.679 -99.000 -99.000 -99.000   3.518   2.419   1.100   0.000   0.000  477.11  371.24  231.72  139.51    0.00    0.00   0.901   0.116   0.019   0.025   0.014   0.008   0.005   0.003   0.003   0.005   0.242
 1981 269   105  14.50  22.80  15.10 -99.000   3.264   1.525   1.730 -99.000 -99.000 -99.000   3.255   1.525   1.730   0.000   0.000  480.37  374.49  233.25  141.24    0.00    0.00   0.319   0.225   0.076   0.169   0.161   0.131   0.114   0.099   0.112   0.323   0.152
 1981 270   106  20.60  24.10  14.70 -99.000   4.752   2.193   2.546 -99.000 -99.000 -99.000   4.739   2.193   2.546   0.000   0.000  485.13  379.23  235.44  143.79    0.00    0.00   0.483   0.337   0.113   0.247   0.233   0.190   0.166   0.145   0.163   0.469   0.219
 1981 271   107  20.80  25.20  15.40 -99.000   4.867   2.219   2.635 -99.000 -99.000 -99.000   4.854   2.219   2.635   0.000   0.000  489.99  384.08  237.66  146.42    0.00    0.00   0.474   0.345   0.116   0.260   0.243   0.199   0.175   0.153   0.172   0.497   0.222