*SOIL WATER DAILY OUTPUT FILE

*DSSAT Cropping System Model Ver. 4.7.5.008 -release  MAY 04, 2021 17:13:26

*RUN   1        : ET-SIMAGRI                MZCER047 ETMZcccc    1
 MODEL          : MZCER047 - Maize
 EXPERIMENT     : ETMZcccc SN MELKSSAL
 DATA PATH      : C:\IRI\Python_Dash\ET_DSS_hist\TEST\
 TREATMENT  1   : ET-SIMAGRI                MZCER047
  
!                                                                                                 Soil water content (mm3/mm3) by soil depth (cm):
!                                                                                                 0-5    5-15   15-20   20-35   35-50   50-65   65-81   81-97  97-118 118-200
@YEAR DOY   DAS  SWTD  SWXD   ROFC   DRNC   PREC  IR#C  IRRC  DTWT    MWTD  TDFD  TDFC   ROFD    SW1D    SW2D    SW3D    SW4D    SW5D    SW6D    SW7D    SW8D    SW9D    SW10
 1981 164     0   586   288      0      0      0     0     0     0    0.00   0.0   0.0   0.00   0.231   0.231   0.231   0.221   0.316   0.316   0.304   0.304   0.305   0.305
 1981 165     1   585   287      0      0      0     0     0   100    0.00   0.0   0.0   0.00   0.215   0.230   0.231   0.221   0.316   0.316   0.304   0.304   0.305   0.305
 1981 166     2   584   286      0      0      0     0     0   200    0.00   0.0   0.0   0.00   0.200   0.229   0.230   0.221   0.316   0.316   0.304   0.304   0.305   0.305
 1981 167     3   583   285      0      0      0     0     0   200    0.00   0.0   0.0   0.00   0.186   0.228   0.230   0.221   0.316   0.316   0.304   0.304   0.305   0.305
 1981 168     4   583   284      0      0      0     0     0   200    0.00   0.0   0.0   0.00   0.174   0.227   0.230   0.220   0.316   0.316   0.304   0.304   0.305   0.305
 1981 169     5   582   284      0      0      0     0     0   200    0.00   0.0   0.0   0.00   0.162   0.226   0.229   0.220   0.316   0.316   0.304   0.304   0.305   0.305
 1981 170     6   581   283      0      0      0     0     0   200    0.00   0.0   0.0   0.00   0.152   0.225   0.229   0.220   0.315   0.316   0.304   0.304   0.305   0.305
 1981 171     7   580   282      0      0      0     0     0   200    0.00   0.0   0.0   0.00   0.143   0.224   0.229   0.220   0.315   0.316   0.304   0.304   0.305   0.305
 1981 172     8   580   282      0      0      0     0     0   200    0.00   0.0   0.0   0.00   0.134   0.223   0.228   0.220   0.315   0.316   0.304   0.304   0.305   0.305
 1981 173     9   579   281      0      0      0     0     0   200    0.00   0.0   0.0   0.00   0.127   0.221   0.228   0.220   0.315   0.316   0.304   0.304   0.305   0.305
 1981 174    10   579   281      0      0      0     0     0   200    0.00   0.0   0.0   0.00   0.120   0.220   0.228   0.220   0.315   0.315   0.304   0.304   0.305   0.305
 1981 175    11   583   285      0      0      5     0     0   200    0.00   0.0   0.0   0.00   0.216   0.219   0.227   0.219   0.315   0.315   0.304   0.304   0.305   0.305
 1981 176    12   586   288      0      0     10     0     0   200    0.00   0.0   0.0   0.00   0.260   0.228   0.227   0.219   0.315   0.315   0.304   0.304   0.305   0.305
 1981 177    13   585   287      0      0     10     0     0   200    0.00   0.0   0.0   0.00   0.239   0.226   0.226   0.219   0.315   0.315   0.304   0.304   0.305   0.305
 1981 178    14   584   286      0      0     10     0     0   200    0.00   0.0   0.0   0.00   0.219   0.225   0.226   0.219   0.315   0.315   0.304   0.304   0.305   0.305
 1981 179    15   583   284      0      0     10     0     0   200    0.00   0.0   0.0   0.00   0.202   0.222   0.225   0.219   0.315   0.315   0.304   0.304   0.305   0.305
 1981 180    16   585   287      0      0     13     0     0   200    0.00   0.0   0.0   0.00   0.247   0.221   0.223   0.219   0.314   0.315   0.304   0.304   0.305   0.305
 1981 181    17   583   285      0      0     13     0     0   200    0.00   0.0   0.0   0.00   0.224   0.219   0.222   0.219   0.314   0.315   0.303   0.304   0.305   0.305
 1981 182    18   582   284      0      0     13     0     0   200    0.00   0.0   0.0   0.00   0.205   0.217   0.221   0.218   0.314   0.315   0.303   0.304   0.305   0.305
 1981 183    19   581   282      0      0     13     0     0   200    0.00   0.0   0.0   0.00   0.190   0.214   0.219   0.218   0.314   0.315   0.303   0.304   0.305   0.305
 1981 184    20   584   286      0      0     18     0     0   200    0.00   0.0   0.0   0.00   0.257   0.218   0.216   0.218   0.314   0.315   0.303   0.304   0.305   0.305
 1981 185    21   583   285      0      0     22     0     0   200    0.00   0.0   0.0   0.00   0.268   0.231   0.212   0.215   0.311   0.312   0.301   0.302   0.303   0.304
 1981 186    22   578   280      0      0     22     0     0   200    0.00   0.0   0.0   0.00   0.242   0.225   0.208   0.212   0.308   0.310   0.300   0.300   0.302   0.302
 1981 187    23   576   278      0      0     22     0     0   200    0.00   0.0   0.0   0.00   0.215   0.219   0.207   0.211   0.308   0.310   0.300   0.300   0.302   0.302
 1981 188    24   574   275      0      0     22     0     0   200    0.00   0.0   0.0   0.00   0.194   0.212   0.205   0.210   0.308   0.310   0.300   0.300   0.302   0.302
 1981 189    25   572   273      0      0     22     0     0   200    0.00   0.0   0.0   0.00   0.179   0.206   0.202   0.207   0.308   0.310   0.300   0.300   0.302   0.302
 1981 190    26   570   272      0      0     22     0     0   200    0.00   0.0   0.0   0.00   0.167   0.201   0.200   0.204   0.308   0.310   0.300   0.300   0.302   0.302
 1981 191    27   578   280      0      0     32     0     0   200    0.00   0.0   0.0   0.00   0.296   0.228   0.197   0.199   0.308   0.310   0.300   0.300   0.302   0.302
 1981 192    28   587   289      0      0     45     0     0   200    0.00   0.0   0.0   0.27   0.322   0.280   0.267   0.202   0.306   0.309   0.298   0.299   0.301   0.302
 1981 193    29   607   309      7      0     75     0     0   200    0.00   0.0   0.0   6.23   0.323   0.320   0.322   0.275   0.319   0.314   0.298   0.299   0.300   0.301
 1981 194    30   599   301      7      2     75     0     0   200    0.00   0.0   0.0   0.00   0.263   0.269   0.274   0.265   0.316   0.314   0.303   0.303   0.304   0.304
 1981 195    31   594   296      7      2     75     0     0   200    0.00   0.0   0.0   0.00   0.244   0.252   0.256   0.261   0.315   0.315   0.303   0.303   0.304   0.304
 1981 196    32   591   293      7      2     75     0     0   200    0.00   0.0   0.0   0.00   0.218   0.242   0.248   0.259   0.315   0.315   0.303   0.303   0.304   0.304
 1981 197    33   588   290      7      2     75     0     0   200    0.00   0.0   0.0   0.00   0.198   0.229   0.238   0.257   0.315   0.315   0.303   0.303   0.304   0.304
 1981 198    34   593   295      7      2     83     0     0   200    0.00   0.0   0.0   0.00   0.287   0.243   0.227   0.254   0.314   0.315   0.303   0.303   0.304   0.304
 1981 199    35   598   300      7      2     92     0     0   200    0.00   0.0   0.0   0.02   0.321   0.267   0.262   0.255   0.313   0.314   0.302   0.302   0.304   0.304
 1981 200    36   594   296      7      2     92     0     0   200    0.00   0.0   0.0   0.00   0.268   0.250   0.251   0.260   0.315   0.315   0.303   0.302   0.303   0.303
 1981 201    37   598   300      7      2    101     0     0   200    0.00   0.0   0.0   0.00   0.324   0.263   0.264   0.263   0.314   0.314   0.302   0.301   0.303   0.303
 1981 202    38   594   296      7      2    101     0     0   200    0.00   0.0   0.0   0.00   0.269   0.249   0.249   0.259   0.315   0.315   0.303   0.303   0.305   0.303
 1981 203    39   590   292      7      2    101     0     0   200    0.00   0.0   0.0   0.00   0.251   0.240   0.238   0.255   0.314   0.315   0.303   0.303   0.304   0.303
 1981 204    40   605   307      8      2    122     0     0   200    0.00   0.0   0.0   1.83   0.324   0.297   0.299   0.266   0.318   0.317   0.304   0.303   0.304   0.302
 1981 205    41   612   314      9      2    134     0     0   200    0.00   0.0   0.0   0.50   0.323   0.302   0.314   0.277   0.327   0.323   0.308   0.306   0.306   0.302
 1981 206    42   618   320      9      2    144     0     0   200    0.00   0.0   0.0   0.31   0.326   0.302   0.317   0.283   0.334   0.330   0.314   0.310   0.308   0.307
 1981 207    43   625   327      9      2    155     0     0   200    0.00   0.0   0.0   0.31   0.330   0.307   0.321   0.288   0.338   0.336   0.319   0.315   0.311   0.309
 1981 208    44   627   328      9      2    160     0     0   200    0.00   0.0   0.0   0.00   0.326   0.287   0.317   0.282   0.337   0.337   0.322   0.319   0.314   0.312
 1981 209    45   626   328      9      4    166     0     0   199    0.00   0.0   0.0   0.00   0.325   0.277   0.306   0.276   0.332   0.336   0.322   0.321   0.316   0.314
 1981 210    46   631   333     10      7    177     0     0   199    0.00   0.0   0.0   0.38   0.331   0.301   0.321   0.281   0.333   0.335   0.322   0.322   0.318   0.316
 1981 211    47   643   345     13     10    198     0     0   198    0.00   0.0   0.0   3.06   0.330   0.320   0.320   0.304   0.347   0.343   0.327   0.325   0.319   0.317
 1981 212    48   640   342     13     14    203     0     0   198    0.00   0.0   0.0   0.00   0.323   0.292   0.321   0.291   0.344   0.345   0.330   0.327   0.321   0.319
 1981 213    49   636   338     13     18    208     0     0   198    0.00   0.0   0.0   0.00   0.321   0.278   0.309   0.280   0.337   0.342   0.329   0.328   0.323   0.321
 1981 214    50   652   354     20     23    239     0     0   197    0.00   0.0   0.0   7.04   0.331   0.321   0.321   0.312   0.353   0.349   0.333   0.331   0.324   0.322
 1981 215    51   616   318     20     56    239     0     0   199    0.00   0.0   0.0   0.00   0.277   0.273   0.273   0.277   0.327   0.328   0.315   0.315   0.312   0.312
 1981 216    52   601   303     20     66    239     0     0   200    0.00   0.0   0.0   0.00   0.256   0.254   0.255   0.263   0.317   0.319   0.308   0.308   0.308   0.308
 1981 217    53   596   298     20     67    239     0     0   200    0.00   0.0   0.0   0.00   0.245   0.243   0.243   0.257   0.313   0.316   0.305   0.305   0.308   0.307
 1981 218    54   611   312     22     68    260     0     0   200    0.00   0.0   0.0   2.02   0.327   0.301   0.305   0.266   0.316   0.317   0.306   0.305   0.307   0.307
 1981 219    55   600   302     22     73    260     0     0   200    0.00   0.0   0.0   0.00   0.273   0.263   0.265   0.259   0.312   0.315   0.305   0.305   0.306   0.307
 1981 220    56   595   297     22     73    260     0     0   200    0.00   0.0   0.0   0.00   0.252   0.250   0.249   0.256   0.308   0.313   0.305   0.305   0.306   0.306
 1981 221    57   590   292     22     73    260     0     0   200    0.00   0.0   0.0   0.00   0.239   0.237   0.237   0.248   0.304   0.310   0.305   0.305   0.306   0.306
 1981 222    58   586   288     22     73    260     0     0   200    0.00   0.0   0.0   0.00   0.228   0.227   0.227   0.243   0.300   0.308   0.304   0.304   0.306   0.306
 1981 223    59   587   289     22     73    265     0     0   200    0.00   0.0   0.0   0.00   0.282   0.237   0.218   0.237   0.297   0.306   0.304   0.304   0.305   0.306
 1981 224    60   596   298     22     73    277     0     0   200    0.00   0.0   0.0   0.13   0.331   0.278   0.270   0.240   0.295   0.304   0.304   0.304   0.305   0.306
 1981 225    61   601   303     22     73    287     0     0   200    0.00   0.0   0.0   0.16   0.326   0.292   0.306   0.259   0.294   0.301   0.304   0.304   0.305   0.305
 1981 226    62   601   302     22     73    291     0     0   200    0.00   0.0   0.0   0.00   0.314   0.278   0.302   0.265   0.303   0.299   0.303   0.303   0.305   0.305
 1981 227    63   596   298     22     73    291     0     0   200    0.00   0.0   0.0   0.00   0.269   0.257   0.267   0.259   0.313   0.309   0.303   0.303   0.305   0.305
 1981 228    64   597   299     22     73    295     0     0   200    0.00   0.0   0.0   0.00   0.291   0.261   0.265   0.260   0.310   0.307   0.303   0.303   0.304   0.305
 1981 229    65   596   297     22     73    298     0     0   200    0.00   0.0   0.0   0.00   0.293   0.260   0.265   0.258   0.309   0.304   0.302   0.303   0.304   0.305
 1981 230    66   597   299     22     73    305     0     0   200    0.00   0.0   0.0   0.00   0.321   0.266   0.272   0.257   0.308   0.300   0.302   0.302   0.304   0.304
 1981 231    67   591   293     22     73    305     0     0   200    0.00   0.0   0.0   0.00   0.269   0.250   0.253   0.255   0.312   0.298   0.301   0.302   0.304   0.304
 1981 232    68   590   292     22     73    309     0     0   200    0.00   0.0   0.0   0.00   0.288   0.255   0.254   0.248   0.308   0.295   0.301   0.302   0.303   0.304
 1981 233    69   585   287     22     73    309     0     0   200    0.00   0.0   0.0   0.00   0.259   0.250   0.250   0.241   0.305   0.291   0.301   0.301   0.303   0.304
 1981 234    70   602   304     25     73    332     0     0   200    0.00   0.0   0.0   2.56   0.330   0.313   0.322   0.262   0.309   0.288   0.300   0.301   0.303   0.303
 1981 235    71   598   300     25     73    332     0     0   200    0.00   0.0   0.0   0.00   0.277   0.272   0.276   0.257   0.313   0.313   0.304   0.304   0.305   0.303
 1981 236    72   594   296     25     73    332     0     0   200    0.00   0.0   0.0   0.00   0.257   0.257   0.259   0.257   0.313   0.311   0.303   0.303   0.304   0.303
 1981 237    73   589   291     25     73    332     0     0   200    0.00   0.0   0.0   0.00   0.232   0.248   0.251   0.250   0.310   0.308   0.303   0.303   0.304   0.303
 1981 238    74   599   300     25     73    345     0     0   200    0.00   0.0   0.0   0.21   0.329   0.279   0.281   0.258   0.307   0.305   0.303   0.303   0.304   0.303
 1981 239    75   594   296     25     73    345     0     0   200    0.00   0.0   0.0   0.00   0.275   0.258   0.259   0.256   0.313   0.312   0.302   0.303   0.304   0.302
 1981 240    76   589   291     25     73    345     0     0   200    0.00   0.0   0.0   0.00   0.253   0.250   0.250   0.249   0.309   0.308   0.302   0.302   0.303   0.302
 1981 241    77   584   286     25     73    345     0     0   200    0.00   0.0   0.0   0.00   0.226   0.240   0.242   0.241   0.306   0.305   0.302   0.302   0.303   0.302
 1981 242    78   596   298     26     73    362     0     0   200    0.00   0.0   0.0   0.74   0.329   0.287   0.287   0.251   0.303   0.302   0.301   0.302   0.303   0.302
 1981 243    79   592   294     26     73    362     0     0   200    0.00   0.0   0.0   0.00   0.277   0.263   0.263   0.257   0.313   0.303   0.301   0.301   0.303   0.301
 1981 244    80   589   290     26     73    362     0     0   200    0.00   0.0   0.0   0.00   0.257   0.256   0.255   0.256   0.311   0.300   0.300   0.301   0.302   0.301
 1981 245    81   583   285     26     73    362     0     0   200    0.00   0.0   0.0   0.00   0.229   0.245   0.245   0.246   0.307   0.297   0.300   0.301   0.302   0.301
 1981 246    82   579   281     26     73    362     0     0   200    0.00   0.0   0.0   0.00   0.205   0.236   0.237   0.240   0.305   0.294   0.300   0.301   0.302   0.301
 1981 247    83   584   286     26     73    372     0     0   200    0.00   0.0   0.0   0.00   0.318   0.255   0.245   0.231   0.301   0.290   0.300   0.300   0.302   0.301
 1981 248    84   589   291     26     73    382     0     0   200    0.00   0.0   0.0   0.06   0.327   0.283   0.284   0.240   0.298   0.287   0.299   0.300   0.301   0.300
 1981 249    85   584   286     26     73    382     0     0   200    0.00   0.0   0.0   0.00   0.274   0.260   0.261   0.256   0.298   0.284   0.299   0.299   0.301   0.300
 1981 250    86   595   297     27     73    398     0     0   200    0.00   0.0   0.0   0.97   0.327   0.301   0.311   0.266   0.309   0.281   0.298   0.299   0.300   0.299
 1981 251    87   590   292     27     73    398     0     0   200    0.00   0.0   0.0   0.00   0.271   0.266   0.271   0.257   0.312   0.310   0.297   0.298   0.300   0.299
 1981 252    88   585   287     27     73    398     0     0   200    0.00   0.0   0.0   0.00   0.251   0.252   0.255   0.255   0.309   0.306   0.296   0.297   0.299   0.298
 1981 253    89   581   283     27     73    398     0     0   200    0.00   0.0   0.0   0.00   0.226   0.245   0.248   0.248   0.306   0.303   0.296   0.297   0.299   0.298
 1981 254    90   583   285     27     73    405     0     0   200    0.00   0.0   0.0   0.00   0.294   0.257   0.255   0.242   0.304   0.301   0.296   0.297   0.299   0.298
 1981 255    91   579   280     27     73    405     0     0   200    0.00   0.0   0.0   0.00   0.260   0.251   0.252   0.237   0.300   0.297   0.295   0.296   0.298   0.298
 1981 256    92   575   276     27     73    405     0     0   200    0.00   0.0   0.0   0.00   0.249   0.244   0.245   0.231   0.297   0.294   0.294   0.296   0.298   0.297
 1981 257    93   576   278     27     73    410     0     0   200    0.00   0.0   0.0   0.00   0.292   0.257   0.249   0.226   0.295   0.292   0.294   0.295   0.297   0.297
 1981 258    94   580   282     27     73    418     0     0   200    0.00   0.0   0.0   0.01   0.326   0.276   0.277   0.231   0.292   0.289   0.293   0.295   0.297   0.296
 1981 259    95   581   283     27     73    424     0     0   200    0.00   0.0   0.0   0.00   0.325   0.276   0.289   0.242   0.289   0.285   0.293   0.294   0.296   0.296
 1981 260    96   576   278     27     73    424     0     0   200    0.00   0.0   0.0   0.00   0.271   0.257   0.263   0.256   0.289   0.282   0.292   0.293   0.296   0.295
 1981 261    97   578   280     27     73    430     0     0   200    0.00   0.0   0.0   0.00   0.309   0.266   0.270   0.258   0.286   0.279   0.291   0.293   0.295   0.295
 1981 262    98   597   299     32     73    459     0     0   200    0.00   0.0   0.0   5.68   0.327   0.321   0.322   0.288   0.320   0.286   0.290   0.292   0.295   0.294
 1981 263    99   592   293     32     73    459     0     0   200    0.00   0.0   0.0   0.00   0.272   0.275   0.276   0.266   0.314   0.312   0.303   0.303   0.301   0.294
 1981 264   100   591   293     32     73    464     0     0   200    0.00   0.0   0.0   0.00   0.294   0.268   0.279   0.262   0.315   0.312   0.302   0.302   0.300   0.293
 1981 265   101   593   295     32     73    470     0     0   200    0.00   0.0   0.0   0.00   0.320   0.273   0.285   0.263   0.316   0.314   0.301   0.302   0.300   0.293
 1981 266   102   588   290     32     73    470     0     0   200    0.00   0.0   0.0   0.00   0.270   0.256   0.262   0.257   0.313   0.312   0.303   0.303   0.304   0.297
 1981 267   103   583   285     32     73    470     0     0   200    0.00   0.0   0.0   0.00   0.249   0.250   0.254   0.249   0.309   0.308   0.302   0.302   0.304   0.296
 1981 268   104   579   281     32     73    470     0     0   200    0.00   0.0   0.0   0.00   0.225   0.243   0.248   0.243   0.307   0.305   0.302   0.302   0.304   0.296
 1981 269   105   583   285     32     73    478     0     0   200    0.00   0.0   0.0   0.00   0.308   0.261   0.258   0.240   0.305   0.303   0.301   0.302   0.303   0.296
 1981 270   106   579   281     32     73    478     0     0   200    0.00   0.0   0.0   0.00   0.266   0.253   0.253   0.242   0.301   0.299   0.301   0.301   0.302   0.295
 1981 271   107   574   276     32     73    478     0     0   200    0.00   0.0   0.0   0.00   0.249   0.246   0.246   0.236   0.298   0.296   0.300   0.300   0.302   0.295
 1981 272   108   571   273     32     73    478     0     0   200    0.00   0.0   0.0   0.00   0.226   0.241   0.241   0.231   0.296   0.294   0.300   0.300   0.302   0.295
 1981 273   109   567   269     32     73    478     0     0   200    0.00   0.0   0.0   0.00   0.204   0.233   0.234   0.224   0.294   0.290   0.300   0.300   0.302   0.295
 1981 274   110   564   265     32     73    478     0     0   200    0.00   0.0   0.0   0.00   0.189   0.227   0.228   0.219   0.292   0.288   0.299   0.300   0.302   0.295
 1981 275   111   565   267     32     73    483     0     0   200    0.00   0.0   0.0   0.00   0.259   0.230   0.223   0.213   0.290   0.285   0.299   0.300   0.302   0.295
 1981 276   112   568   270     32     73    491     0     0   200    0.00   0.0   0.0   0.00   0.315   0.256   0.231   0.207   0.287   0.281   0.298   0.299   0.301   0.294
 1981 277   113   568   270     32     73    496     0     0   200    0.00   0.0   0.0   0.00   0.318   0.267   0.260   0.203   0.283   0.277   0.297   0.298   0.300   0.293
 1981 278   114   562   264     32     73    496     0     0   200    0.00   0.0   0.0   0.00   0.263   0.252   0.250   0.209   0.279   0.272   0.296   0.297   0.299   0.292
 1981 279   115   556   257     32     73    496     0     0   200    0.00   0.0   0.0   0.00   0.243   0.242   0.241   0.202   0.274   0.267   0.294   0.296   0.298   0.291
 1981 280   116   551   253     32     73    496     0     0   200    0.00   0.0   0.0   0.00   0.220   0.235   0.235   0.195   0.272   0.264   0.294   0.296   0.298   0.291
 1981 281   117   548   249     32     73    496     0     0   200    0.00   0.0   0.0   0.00   0.201   0.227   0.228   0.189   0.270   0.260   0.294   0.296   0.298   0.291
 1981 282   118   544   246     32     73    496     0     0   200    0.00   0.0   0.0   0.00   0.186   0.220   0.222   0.182   0.267   0.256   0.294   0.296   0.298   0.291
 1981 283   119   541   243     32     73    496     0     0   200    0.00   0.0   0.0   0.00   0.174   0.216   0.218   0.176   0.265   0.253   0.294   0.296   0.298   0.291
 1981 284   120   538   240     32     73    496     0     0   200    0.00   0.0   0.0   0.00   0.162   0.213   0.215   0.171   0.263   0.250   0.294   0.296   0.298   0.291
 1981 285   121   535   237     32     73    496     0     0   200    0.00   0.0   0.0   0.00   0.152   0.209   0.212   0.165   0.260   0.245   0.294   0.296   0.298   0.291
 1981 286   122   532   234     32     73    496     0     0   200    0.00   0.0   0.0   0.00   0.143   0.206   0.208   0.161   0.256   0.239   0.294   0.296   0.298   0.291
 1981 287   123   529   231     32     73    496     0     0   200    0.00   0.0   0.0   0.00   0.134   0.203   0.205   0.157   0.251   0.232   0.294   0.296   0.298   0.291
 1981 288   124   526   228     32     73    496     0     0   200    0.00   0.0   0.0   0.00   0.127   0.200   0.203   0.155   0.247   0.225   0.294   0.296   0.298   0.291
 1981 289   125   523   225     32     73    496     0     0   200    0.00   0.0   0.0   0.00   0.120   0.198   0.201   0.152   0.242   0.217   0.294   0.295   0.298   0.291
 1981 290   126   520   222     32     73    496     0     0   200    0.00   0.0   0.0   0.00   0.113   0.196   0.199   0.151   0.237   0.210   0.294   0.295   0.298   0.291
 1981 291   127   517   219     32     73    496     0     0   200    0.00   0.0   0.0   0.00   0.108   0.194   0.197   0.149   0.232   0.202   0.294   0.295   0.298   0.291
 1981 292   128   515   217     32     73    496     0     0   200    0.00   0.0   0.0   0.00   0.102   0.192   0.196   0.148   0.226   0.194   0.294   0.295   0.298   0.291
 1981 293   129   512   214     32     73    496     0     0   200    0.00   0.0   0.0   0.00   0.097   0.190   0.194   0.146   0.221   0.185   0.294   0.295   0.298   0.291
 1981 294   130   509   211     32     73    496     0     0   200    0.00   0.0   0.0   0.00   0.093   0.189   0.193   0.145   0.215   0.177   0.294   0.295   0.298   0.291
 1981 295   131   507   209     32     73    496     0     0   200    0.00   0.0   0.0   0.00   0.089   0.187   0.192   0.144   0.210   0.169   0.294   0.295   0.298   0.291
 1981 296   132   504   206     32     73    496     0     0   200    0.00   0.0   0.0   0.00   0.086   0.186   0.190   0.143   0.203   0.164   0.294   0.295   0.298   0.291
 1981 297   133   502   204     32     73    496     0     0   200    0.00   0.0   0.0   0.00   0.082   0.184   0.189   0.142   0.195   0.159   0.294   0.295   0.298   0.291
 1981 298   134   499   201     32     73    496     0     0   200    0.00   0.0   0.0   0.00   0.079   0.183   0.187   0.140   0.185   0.156   0.294   0.295   0.298   0.291
 1981 299   135   497   199     32     73    496     0     0   200    0.00   0.0   0.0   0.00   0.077   0.181   0.186   0.139   0.175   0.153   0.294   0.295   0.298   0.291
 1981 300   136   494   196     32     73    496     0     0   200    0.00   0.0   0.0   0.00   0.074   0.179   0.185   0.138   0.164   0.151   0.294   0.295   0.298   0.291
 1981 301   137   492   194     32     73    496     0     0   200    0.00   0.0   0.0   0.00   0.072   0.177   0.183   0.136   0.158   0.148   0.294   0.295   0.298   0.291
 1981 302   138   490   192     32     73    496     0     0   200    0.00   0.0   0.0   0.00   0.070   0.175   0.180   0.133   0.152   0.144   0.294   0.295   0.298   0.291
 1981 303   139   487   189     32     73    496     0     0   200    0.00   0.0   0.0   0.00   0.068   0.173   0.177   0.130   0.147   0.140   0.294   0.295   0.298   0.291
 1981 304   140   486   188     32     73    496     0     0   200    0.00   0.0   0.0   0.00   0.067   0.170   0.175   0.128   0.144   0.138   0.294   0.295   0.298   0.291
 1981 305   141   484   186     32     73    496     0     0   200    0.00   0.0   0.0   0.00   0.065   0.168   0.172   0.126   0.141   0.135   0.294   0.295   0.298   0.291

*DSSAT Cropping System Model Ver. 4.7.5.008 -release  MAY 04, 2021 17:13:26

*RUN   2        : ET-SIMAGRI                MZCER047 ETMZcccc    1
 MODEL          : MZCER047 - Maize
 EXPERIMENT     : ETMZcccc SN MELKSSAL
 DATA PATH      : C:\IRI\Python_Dash\ET_DSS_hist\TEST\
 TREATMENT  1   : ET-SIMAGRI                MZCER047
  
!                                                                                                 Soil water content (mm3/mm3) by soil depth (cm):
!                                                                                                 0-5    5-15   15-20   20-35   35-50   50-65   65-81   81-97  97-118 118-200
@YEAR DOY   DAS  SWTD  SWXD   ROFC   DRNC   PREC  IR#C  IRRC  DTWT    MWTD  TDFD  TDFC   ROFD    SW1D    SW2D    SW3D    SW4D    SW5D    SW6D    SW7D    SW8D    SW9D    SW10
 1982 164     0   586   288      0      0      0     0     0     0    0.00   0.0   0.0   0.00   0.231   0.231   0.231   0.221   0.316   0.316   0.304   0.304   0.305   0.305
 1982 165     1   585   287      0      0      0     0     0   100    0.00   0.0   0.0   0.00   0.215   0.230   0.231   0.221   0.316   0.316   0.304   0.304   0.305   0.305
 1982 166     2   584   286      0      0      0     0     0   200    0.00   0.0   0.0   0.00   0.200   0.229   0.230   0.221   0.316   0.316   0.304   0.304   0.305   0.305
 1982 167     3   583   285      0      0      0     0     0   200    0.00   0.0   0.0   0.00   0.186   0.228   0.230   0.221   0.316   0.316   0.304   0.304   0.305   0.305
 1982 168     4   583   284      0      0      0     0     0   200    0.00   0.0   0.0   0.00   0.174   0.227   0.230   0.220   0.316   0.316   0.304   0.304   0.305   0.305
 1982 169     5   582   284      0      0      0     0     0   200    0.00   0.0   0.0   0.00   0.162   0.226   0.229   0.220   0.316   0.316   0.304   0.304   0.305   0.305
 1982 170     6   581   283      0      0      0     0     0   200    0.00   0.0   0.0   0.00   0.152   0.225   0.229   0.220   0.315   0.316   0.304   0.304   0.305   0.305
 1982 171     7   585   287      0      0      5     0     0   200    0.00   0.0   0.0   0.00   0.240   0.224   0.229   0.220   0.315   0.316   0.304   0.304   0.305   0.305
 1982 172     8   584   286      0      0      5     0     0   200    0.00   0.0   0.0   0.00   0.223   0.223   0.228   0.220   0.315   0.316   0.304   0.304   0.305   0.305
 1982 173     9   583   285      0      0      5     0     0   200    0.00   0.0   0.0   0.00   0.207   0.222   0.228   0.220   0.315   0.316   0.304   0.304   0.305   0.305
 1982 174    10   582   284      0      0      5     0     0   200    0.00   0.0   0.0   0.00   0.192   0.221   0.228   0.220   0.315   0.315   0.304   0.304   0.305   0.305
 1982 175    11   582   283      0      0      5     0     0   200    0.00   0.0   0.0   0.00   0.179   0.219   0.227   0.219   0.315   0.315   0.304   0.304   0.305   0.305
 1982 176    12   581   283      0      0      5     0     0   200    0.00   0.0   0.0   0.00   0.168   0.218   0.227   0.219   0.315   0.315   0.304   0.304   0.305   0.305
 1982 177    13   580   282      0      0      5     0     0   200    0.00   0.0   0.0   0.00   0.157   0.216   0.226   0.219   0.315   0.315   0.304   0.304   0.305   0.305
 1982 178    14   579   281      0      0      5     0     0   200    0.00   0.0   0.0   0.00   0.147   0.215   0.225   0.219   0.315   0.315   0.304   0.304   0.305   0.305
 1982 179    15   586   288      0      0     13     0     0   200    0.00   0.0   0.0   0.00   0.266   0.225   0.224   0.219   0.315   0.315   0.304   0.304   0.305   0.305
 1982 180    16   585   287      0      0     18     0     0   200    0.00   0.0   0.0   0.00   0.282   0.245   0.220   0.216   0.311   0.312   0.301   0.302   0.303   0.303
 1982 181    17   587   288      0      0     25     0     0   200    0.00   0.0   0.0   0.00   0.311   0.263   0.249   0.213   0.308   0.310   0.299   0.300   0.301   0.302
 1982 182    18   582   284      0      0     25     0     0   200    0.00   0.0   0.0   0.00   0.261   0.254   0.255   0.218   0.305   0.307   0.297   0.298   0.300   0.301
 1982 183    19   576   278      0      0     25     0     0   200    0.00   0.0   0.0   0.00   0.239   0.244   0.249   0.215   0.302   0.305   0.295   0.296   0.299   0.299