*GROWTH ASPECTS OUTPUT FILE

*DSSAT Cropping System Model Ver. 4.7.5.008 -release  MAY 04, 2021 17:13:31

*RUN   1        : ET-SIMAGRI                MZCER047 ETMZdddd    1
 MODEL          : MZCER047 - Maize
 EXPERIMENT     : ETMZdddd SN MELKSSAL
 DATA PATH      : C:\IRI\Python_Dash\ET_DSS_hist\TEST\
 TREATMENT  1   : ET-SIMAGRI                MZCER047
  
!                                                                                                                                                                                                                                      Root Dens. (cm/cm3) by soil depth (cm):
!                                                                                                                                                                                                                                      0-5    5-15   15-20   20-35   35-50   50-65   65-81   81-97  97-118 118-200
@YEAR DOY   DAS   DAP   L#SD   GSTD   LAID   LWAD   SWAD   GWAD   RWAD   VWAD   CWAD   G#AD   GWGD   HIAD   PWAD   P#AD   WSPD   WSGD   NSTD   EWSD  PST1A  PST2A   KSTD   LN%D   SH%D   HIPD   PWDD   PWTD     SLAD   CHTD   CWID   RDPD    RL1D    RL2D    RL3D    RL4D    RL5D    RL6D    RL7D    RL8D    RL9D   RL10D   CDAD   LDAD   SDAD   SNW0C   SNW1C  DTTD
 1981 166     2     0    0.0      0   0.00      0      0      0      0      0      0      0    0.0  0.000      0      0  0.000  0.000  0.000  0.000  0.000  0.000  0.000   0.00   0.00   0.00      0      0      0.0   0.00   0.00   0.03    0.00    0.00    0.00    0.00    0.00    0.00    0.00    0.00    0.00    0.00      0      0      0       0       0 15.13
 1981 167     3     1    0.0      0   0.00      0      0      0      0      0      0      0    0.0  0.000      0      0  0.000  0.000  0.000  0.000  0.000  0.000  0.000   0.00   0.00   0.00      0      0      0.0   0.00   0.00   0.05    0.00    0.00    0.00    0.00    0.00    0.00    0.00    0.00    0.00    0.00      0      0      0       0       0 16.57
 1981 168     4     2    0.0      0   0.00      0      0      0      0      0      0      0    0.0  0.000      0      0  0.000  0.000  0.000  0.000  0.000  0.000  0.000   0.00   0.00   0.00      0      0      0.0   0.00   0.00   0.07    0.00    0.00    0.00    0.00    0.00    0.00    0.00    0.00    0.00    0.00      0      0      0       0       0 15.78
 1981 169     5     3    0.0      0   0.00      0      0      0      0      0      0      0    0.0  0.000      0      0  0.000  0.000  0.000  0.000  0.000  0.000  0.000   0.00   0.00   0.00      0      0      0.0   0.00   0.00   0.10    0.00    0.00    0.00    0.00    0.00    0.00    0.00    0.00    0.00    0.00      0      0      0       0       0 17.28
 1981 170     6     4    0.0      0   0.00      0      0      0      0      0      0      0    0.0  0.000      0      0  0.000  0.000  0.000  0.000  0.000  0.000  0.000   0.00   0.00   0.00      0      0      0.0   0.00   0.00   0.12    0.00    0.00    0.00    0.00    0.00    0.00    0.00    0.00    0.00    0.00      0      0      0       0       0 15.66
 1981 171     7     5    2.0      1   0.00     12     12      0     12     24     24      0    0.0  0.000      0      0  0.000  0.000  0.012  0.000  0.000  0.000  0.000   4.40   0.00   0.00      0      0     27.9   0.00   0.00   0.14    0.24    0.09    0.00    0.00    0.00    0.00    0.00    0.00    0.00    0.00      0      0      0       0       0 14.98
 1981 172     8     6    2.0      1   0.01     12     12      0     12     24     24      0    0.0  0.000      0      0  0.000  0.000  0.014  0.000  0.000  0.000  0.000   4.40   0.00   0.00      0      0     54.2   0.00   0.00   0.15    0.24    0.09    0.00    0.00    0.00    0.00    0.00    0.00    0.00    0.00      0      0      0       0       0 14.61
 1981 173     9     7    3.0      1   0.01     12     12      0     13     24     24      0    0.0  0.000      0      0  0.000  0.000  0.007  0.000  0.000  0.000  0.000   4.40   0.00   0.00      0      0     87.4   0.01   0.00   0.17    0.23    0.10    0.00    0.00    0.00    0.00    0.00    0.00    0.00    0.00      0      0      0       0       0 15.93
 1981 174    10     8    3.0      1   0.02     12     12      0     14     24     24      0    0.0  0.000      0      0  0.000  0.000  0.001  0.000  0.000  0.000  0.000   4.40   0.00   0.00      0      0    125.6   0.01   0.00   0.18    0.23    0.12    0.01    0.00    0.00    0.00    0.00    0.00    0.00    0.00      0      0      0       0       0 16.41
 1981 175    11     9    4.0      1   0.03     12     12      0     15     24     24      0    0.0  0.000      0      0  0.000  0.000  0.000  0.000  0.000  0.000  0.000   4.40   0.00   0.00      0      0    244.3   0.02   0.00   0.20    0.24    0.13    0.03    0.00    0.00    0.00    0.00    0.00    0.00    0.00      0      0      0       0       0 15.31
 1981 176    12    10    4.0      1   0.05     14     12      0     17     26     26      0    0.0  0.000      0      0  0.000  0.000  0.000  0.000  0.000  0.000  0.000   4.07   0.00   0.00      0      0    333.2   0.03   0.00   0.21    0.26    0.15    0.04    0.00    0.00    0.00    0.00    0.00    0.00    0.00      0      0      0       0       0 15.75
 1981 177    13    11    5.0      1   0.07     22     12      0     18     34     34      0    0.0  0.000      0      0  0.000  0.000  0.000  0.000  0.000  0.000  0.000   3.14   0.00   0.00      0      0    304.9   0.04   0.00   0.22    0.27    0.16    0.05    0.00    0.00    0.00    0.00    0.00    0.00    0.00      0      0      0       0       0 15.29
 1981 178    14    12    5.0      1   0.09     30     12      0     19     42     42      0    0.0  0.000      0      0  0.000  0.000  0.019  0.000  0.000  0.000  0.000   3.39   0.00   0.00      0      0    285.6   0.05   0.00   0.23    0.28    0.17    0.07    0.00    0.00    0.00    0.00    0.00    0.00    0.00      0      0      0       0       0 13.60
 1981 179    15    13    5.0      1   0.11     41     12      0     21     53     53      0    0.0  0.000      0      0  0.000  0.000  0.000  0.000  0.000  0.000  0.000   3.29   0.00   0.00      0      0    267.6   0.06   0.00   0.25    0.30    0.18    0.08    0.00    0.00    0.00    0.00    0.00    0.00    0.00      0      0      0       0       0 15.44
 1981 180    16    14    6.0      1   0.12     49     12      0     25     61     61      0    0.0  0.000      0      0  0.170  0.447  0.000  0.000  0.000  0.000  0.000   3.61   0.00   0.00      0      0    257.0   0.07   0.00   0.26    0.34    0.22    0.12    0.00    0.00    0.00    0.00    0.00    0.00    0.00      0      0      0       0       0 16.09
 1981 181    17    15    6.0      1   0.16     64     12      0     29     76     76      0    0.0  0.000      0      0  0.000  0.000  0.000  0.000  0.000  0.000  0.000   3.25   0.00   0.00      0      0    244.3   0.09   0.00   0.27    0.37    0.25    0.15    0.00    0.00    0.00    0.00    0.00    0.00    0.00      0      0      0       0       0 15.40
 1981 182    18    16    6.0      1   0.18     79     12      0     31     91     91      0    0.0  0.000      0      0  0.000  0.000  0.000  0.000  0.000  0.000  0.000   3.38   0.00   0.00      0      0    234.1   0.10   0.00   0.28    0.39    0.27    0.17    0.01    0.00    0.00    0.00    0.00    0.00    0.00      0      0      0       0       1 12.86
 1981 183    19    17    7.0      1   0.20     89     12      0     37    101    101      0    0.0  0.000      0      0  0.119  0.413  0.000  0.000  0.000  0.000  0.000   3.60   0.00   0.00      0      0    227.6   0.11   0.00   0.29    0.45    0.33    0.23    0.01    0.00    0.00    0.00    0.00    0.00    0.00      0      0      0       0       1 13.24
 1981 184    20    18    7.0      1   0.21     97     12      0     44    109    109      0    0.0  0.000      0      0  0.420  0.614  0.000  0.000  0.000  0.000  0.000   3.65   0.00   0.00      0      0    219.2   0.12   0.00   0.30    0.51    0.39    0.29    0.02    0.00    0.00    0.00    0.00    0.00    0.00      0      0      0       0       1 15.05
 1981 185    21    19    8.0      1   0.26    121     12      0     51    133    133      0    0.0  0.000      0      0  0.000  0.000  0.000  0.000  0.000  0.000  0.000   3.21   0.00   0.00      0      0    211.1   0.14   0.00   0.31    0.57    0.45    0.35    0.03    0.00    0.00    0.00    0.00    0.00    0.00      0      0      0       0       1 14.41
 1981 186    22    20    8.0      2   0.31    141     12      0     62    153    153      0    0.0  0.000      0      0  0.000  0.000  0.000  0.000  0.000  0.000  0.000   3.38   0.00   0.00      0      0    220.3   0.17   0.00   0.33    0.67    0.55    0.44    0.04    0.00    0.00    0.00    0.00    0.00    0.00      0      0      0       0       1 14.12
 1981 187    23    21    8.0      2   0.37    176     12      0     72    188    188      0    0.0  0.000      0      0  0.000  0.000  0.003  0.000  0.000  0.000  0.000   3.15   0.00   0.00      0      0    211.4   0.21   0.00   0.36    0.76    0.64    0.51    0.06    0.00    0.00    0.00    0.00    0.00    0.00      0      0      0       0       2 15.32
 1981 188    24    22    9.0      2   0.42    208     12      0     91    220    220      0    0.0  0.000      0      0  0.000  0.253  0.000  0.000  0.000  0.000  0.000   3.28   0.00   0.00      0      0    204.4   0.24   0.00   0.37    0.94    0.80    0.64    0.09    0.00    0.00    0.00    0.00    0.00    0.00      0      0      0       0       2 15.63
 1981 189    25    23    9.0      2   0.47    234     12      0    107    246    246      0    0.0  0.000      0      0  0.089  0.393  0.000  0.000  0.000  0.000  0.000   4.05   0.00   0.00      0      0    199.2   0.26   0.00   0.38    1.05    0.96    0.78    0.12    0.00    0.00    0.00    0.00    0.00    0.00      0      0      0       0       3 14.68
 1981 190    26    24    9.0      2   0.51    262     12      0    122    274    274      0    0.0  0.000      0      0  0.000  0.301  0.000  0.000  0.000  0.000  0.000   3.91   0.00   0.00      0      0    194.6   0.28   0.00   0.38    1.06    1.13    0.91    0.15    0.00    0.00    0.00    0.00    0.00    0.00      0      0      0       0       3 12.28
 1981 191    27    25   10.0      3   0.55    289     12      0    141    301    301      0    0.0  0.000      0      0  0.066  0.378  0.000  0.000  0.000  0.000  0.000   3.81   0.00   0.00      0      0    189.2   0.30   0.00   0.39    1.24    1.31    1.04    0.18    0.00    0.00    0.00    0.00    0.00    0.00      0      0      0       0       4 12.10
 1981 192    28    26   10.0      3   0.62    338     12      0    149    350    350      0    0.0  0.000      0      0  0.000  0.000  0.000  0.000  0.000  0.000  0.000   3.77   0.00   0.00      0      0    184.1   0.34   0.00   0.40    1.30    1.38    1.11    0.19    0.00    0.00    0.00    0.00    0.00    0.00      0      0      0       0       4 12.76
 1981 193    29    27   10.0      3   0.70    392     13      0    158    405    405      0    0.0  0.000      0      0  0.000  0.000  0.000  0.000  0.000  0.000  0.000   3.72   0.00   0.00      0      0    179.2   0.39   0.00   0.41    1.34    1.44    1.19    0.22    0.00    0.00    0.00    0.00    0.00    0.00      0      0      0       0       5 12.82
 1981 194    30    28   11.0      3   0.80    460     16      0    181    476    476      0    0.0  0.000      0      0  0.000  0.000  0.000  0.000  0.000  0.000  0.000   3.68   0.00   0.00      0      0    174.0   0.44   0.00   0.42    1.47    1.61    1.38    0.30    0.00    0.00    0.00    0.00    0.00    0.00      0      0      0       0       6 14.78
 1981 195    31    29   11.0      3   0.89    526     19      0    201    545    545      0    0.0  0.000      0      0  0.000  0.000  0.000  0.000  0.000  0.000  0.000   3.61   0.00   0.00      0      0    169.8   0.50   0.00   0.42    1.59    1.75    1.53    0.37    0.01    0.00    0.00    0.00    0.00    0.00      0      0      0       0       7 12.85
 1981 196    32    30   11.0      3   0.99    596     24      0    221    620    620      0    0.0  0.000      0      0  0.000  0.000  0.000  0.000  0.000  0.000  0.000   3.56   0.00   0.00      0      0    165.9   0.55   0.00   0.43    1.74    1.88    1.68    0.44    0.01    0.00    0.00    0.00    0.00    0.00      0      0      0       0       8 12.70
 1981 197    33    31   12.0      3   1.10    679     32      0    244    711    711      0    0.0  0.000      0      0  0.000  0.000  0.000  0.000  0.000  0.000  0.000   3.53   0.00   0.00      0      0    161.9   0.61   0.00   0.44    1.90    2.04    1.85    0.52    0.01    0.00    0.00    0.00    0.00    0.00      0      0      0       0       9 12.20
 1981 198    34    32   12.0      3   1.21    766     43      0    260    809    809      0    0.0  0.000      0      0  0.000  0.000  0.000  0.000  0.000  0.000  0.000   3.47   0.00   0.00      0      0    158.3   0.67   0.00   0.45    2.00    2.15    1.96    0.58    0.02    0.00    0.00    0.00    0.00    0.00      0      0      0       0      10 12.45
 1981 199    35    33   12.0      3   1.32    853     57      0    286    911    911      0    0.0  0.000      0      0  0.000  0.000  0.000  0.000  0.000  0.000  0.000   3.42   0.00   0.00      0      0    155.1   0.73   0.00   0.46    2.09    2.33    2.17    0.68    0.03    0.00    0.00    0.00    0.00    0.00      0      0      0       0      11 12.30
 1981 200    36    34   13.0      3   1.44    944     75      0    308   1019   1019      0    0.0  0.000      0      0  0.000  0.000  0.000  0.000  0.000  0.000  0.000   3.37   0.00   0.00      0      0    152.1   0.80   0.00   0.46    2.17    2.46    2.33    0.79    0.04    0.00    0.00    0.00    0.00    0.00      0      0      0       0      13 12.40
 1981 201    37    35   13.0      3   1.55   1036     97      0    324   1132   1132      0    0.0  0.000      0      0  0.000  0.000  0.000  0.000  0.000  0.000  0.000   3.33   0.00   0.00      0      0    149.5   0.86   0.00   0.47    2.19    2.55    2.46    0.88    0.06    0.00    0.00    0.00    0.00    0.00      0      0      0       0      14 12.30
 1981 202    38    36   13.0      3   1.67   1134    124      0    348   1258   1258      0    0.0  0.000      0      0  0.000  0.000  0.000  0.000  0.000  0.000  0.000   3.25   0.00   0.00      0      0    146.9   0.92   0.00   0.48    2.20    2.62    2.61    1.05    0.10    0.00    0.00    0.00    0.00    0.00      0      0      0       0      16 13.00
 1981 203    39    37   14.0      3   1.77   1224    154      0    367   1378   1378      0    0.0  0.000      0      0  0.000  0.000  0.000  0.000  0.000  0.000  0.000   3.10   0.00   0.00      0      0    144.7   0.98   0.00   0.49    2.21    2.63    2.62    1.19    0.17    0.00    0.00    0.00    0.00    0.00      0      0      0       0      18 11.65
 1981 204    40    38   14.0      3   1.88   1318    189      0    399   1507   1507      0    0.0  0.000      0      0  0.000  0.000  0.000  0.000  0.000  0.000  0.000   2.91   0.00   0.00      0      0    142.7   1.04   0.00   0.50    2.28    2.70    2.69    1.30    0.40    0.00    0.00    0.00    0.00    0.00      0      0      0       0      20 12.00
 1981 205    41    39   14.0      3   1.99   1416    231      0    438   1647   1647      0    0.0  0.000      0      0  0.000  0.000  0.000  0.000  0.000  0.000  0.000   2.71   0.00   0.00      0      0    140.7   1.11   0.00   0.50    2.38    2.80    2.79    1.36    0.71    0.00    0.00    0.00    0.00    0.00      0      0      0       0      22 12.35
 1981 206    42    40   15.0      3   2.10   1511    277      0    464   1788   1788      0    0.0  0.000      0      0  0.000  0.000  0.010  0.000  0.000  0.000  0.000   2.53   0.00   0.00      0      0    138.8   1.16   0.00   0.51    2.45    2.87    2.86    1.40    0.90    0.01    0.00    0.00    0.00    0.00      0      0      0       0      24 12.00
 1981 207    43    41   15.0      3   2.17   1587    318      0    475   1905   1905      0    0.0  0.000      0      0  0.000  0.000  0.042  0.000  0.000  0.000  0.000   2.41   0.00   0.00      0      0    136.8   1.20   0.00   0.52    2.48    2.89    2.89    1.42    0.98    0.02    0.00    0.00    0.00    0.00      0      0      0       0      26 10.40
 1981 208    44    42   15.0      3   2.24   1665    364      0    512   2029   2029      0    0.0  0.000      0      0  0.000  0.000  0.069  0.000  0.000  0.000  0.000   2.28   0.00   0.00      0      0    134.4   1.24   0.00   0.52    2.60    3.01    3.01    1.49    1.19    0.07    0.00    0.00    0.00    0.00      0      0      0       0      28 11.40
 1981 209    45    43   15.0      3   2.30   1741    415      0    544   2157   2157      0    0.0  0.000      0      0  0.000  0.000  0.088  0.000  0.000  0.000  0.000   2.17   0.00   0.00      0      0    131.8   1.27   0.00   0.53    2.71    3.12    3.11    1.55    1.34    0.13    0.00    0.00    0.00    0.00      0      0      0       0      31 11.85
 1981 210    46    44   16.0      3   2.34   1812    467      0    551   2280   2280      0    0.0  0.000      0      0  0.000  0.000  0.106  0.000  0.000  0.000  0.000   2.07   0.00   0.00      0      0    129.1   1.30   0.00   0.54    2.73    3.14    3.13    1.56    1.37    0.15    0.00    0.00    0.00    0.00      0      0      0       0      34 11.50
 1981 211    47    45   16.0      3   2.38   1881    523      0    564   2404   2404      0    0.0  0.000      0      0  0.000  0.000  0.121  0.000  0.000  0.000  0.000   1.99   0.00   0.00      0      0    126.4   1.32   0.00   0.55    2.78    3.18    3.18    1.59    1.41    0.19    0.00    0.00    0.00    0.00      0      0      0       0      36 11.70
 1981 212    48    46   16.0      3   2.40   1943    576      0    577   2519   2519      0    0.0  0.000      0      0  0.000  0.000  0.135  0.000  0.000  0.000  0.000   1.91   0.00   0.00      0      0    123.7   1.33   0.00   0.55    2.84    3.24    3.23    1.62    1.44    0.23    0.00    0.00    0.00    0.00      0      0      0       0      39 10.85
 1981 213    49    47   17.0      3   2.42   2006    634      0    613   2640   2643      0    0.0  0.000      3      0  0.000  0.000  0.147  0.000  0.000  0.000  0.000   1.84   0.00   0.00      0      3    120.9   1.34   0.00   0.56    3.00    3.40    3.39    1.72    1.50    0.33    0.00    0.00    0.00    0.00      0      0      0       0      42 11.70
 1981 214    50    48   17.0      3   2.46   2083    677      0    617   2760   2764      0    0.0  0.000      4      0  0.000  0.000  0.156  0.000  0.000  0.000  0.000   1.78   0.00   0.00      0      4    118.0   1.36   0.00   0.57    3.02    3.42    3.41    1.73    1.49    0.35    0.00    0.00    0.00    0.00      0      0      0       0      45 12.15
 1981 215    51    49   17.0      3   2.49   2167    765      0    624   2933   2940      0    0.0  0.000      8      0  0.000  0.000  0.165  0.000  0.000  0.000  0.000   1.68   0.00   0.00      0      8    115.0   1.38   0.00   0.58    3.06    3.45    3.45    1.75    1.49    0.37    0.00    0.00    0.00    0.00      0      0      0       0      48 12.15
 1981 216    52    50   18.0      3   2.51   2234    855      0    630   3088   3101      0    0.0  0.000     12      0  0.000  0.000  0.173  0.000  0.000  0.000  0.000   1.61   0.00   0.00      0     12    112.2   1.39   0.00   0.58    3.09    3.48    3.48    1.77    1.49    0.38    0.00    0.00    0.00    0.00      0      0      0       0      51 12.20
 1981 217    53    51   18.0      3   2.51   2290    942      0    646   3232   3251      0    0.0  0.000     19      0  0.000  0.000  0.186  0.000  0.000  0.000  0.000   1.56   0.00   0.01      0     19    109.4   1.39   0.00   0.59    3.18    3.57    3.57    1.82    1.49    0.42    0.00    0.00    0.00    0.00      0      0      0       0      55 12.25
 1981 218    54    52   18.0      3   2.49   2337   1023      0    672   3360   3387      0    0.0  0.000     28      0  0.000  0.000  0.195  0.000  0.000  0.000  0.000   1.51   0.00   0.01      0     28    106.6   1.39   0.00   0.60    3.33    3.72    3.71    1.90    1.50    0.48    0.00    0.00    0.00    0.00      0      0      0       0      58 12.15
 1981 219    55    53   18.0      3   2.47   2376   1095      0    715   3472   3511      0    0.0  0.000     40      0  0.000  0.000  0.205  0.000  0.000  0.000  0.000   1.47   0.00   0.01      0     40    103.9   1.39   0.00   0.61    3.57    3.96    3.95    2.04    1.52    0.56    0.00    0.00    0.00    0.00      0      0      0       0      61 11.80
 1981 220    56    54   19.0      3   2.44   2412   1161      0    755   3573   3627      0    0.0  0.000     54      0  0.000  0.000  0.222  0.000  0.000  0.000  0.000   1.45   0.00   0.01      0     54    101.2   1.39   0.00   0.61    3.80    4.00    4.00    2.17    1.53    0.63    0.00    0.00    0.00    0.00      0      0      0       0      65 11.60
 1981 221    57    55   19.0      3   2.41   2448   1232      0    790   3679   3751      0    0.0  0.000     71      0  0.000  0.000  0.229  0.000  0.000  0.000  0.000   1.42   0.00   0.02      0     71     98.5   1.39   0.00   0.62    4.00    4.00    4.00    2.29    1.55    0.69    0.00    0.00    0.00    0.00      0      0      0       0      69 12.90
 1981 222    58    56   19.0      3   2.38   2479   1297      0    810   3776   3865      0    0.0  0.000     89      0  0.000  0.000  0.234  0.000  0.000  0.000  0.000   1.39   0.00   0.02      0     89     95.9   1.39   0.00   0.63    4.00    4.00    4.00    2.36    1.55    0.72    0.00    0.00    0.00    0.00      0      0      0       0      73 12.25
 1981 223    59    57   20.0      3   2.35   2510   1361      0    823   3871   3980      0    0.0  0.000    109      0  0.000  0.000  0.239  0.000  0.000  0.000  0.000   1.37   0.00   0.03      0    109     93.5   1.39   0.00   0.64    4.00    4.00    4.00    2.40    1.56    0.75    0.00    0.00    0.00    0.00      0      0      0       0      77 12.55
 1981 224    60    58   20.0      3   2.31   2536   1420      0    825   3956   4082      0    0.0  0.000    127      0  0.000  0.000  0.242  0.000  0.000  0.000  0.000   1.35   0.00   0.03      0    127     91.0   1.39   0.00   0.65    4.00    4.00    4.00    2.41    1.55    0.75    0.00    0.00    0.00    0.00      0      0      0       0      81 11.75
 1981 225    61    59   20.0      3   2.27   2562   1463      0    859   4025   4187      0    0.0  0.000    162      0  0.000  0.000  0.243  0.000  0.000  0.000  0.000   1.34   0.00   0.04      0    162     88.7   1.39   0.00   0.65    4.00    4.00    4.00    2.52    1.57    0.80    0.00    0.00    0.00    0.00      0      0      0       0      85 11.85
 1981 226    62    60   21.0      3   2.24   2588   1503      0    891   4091   4296      0    0.0  0.000    204      0  0.000  0.000  0.242  0.000  0.000  0.000  0.000   1.32   0.00   0.05      0    204     86.4   1.39   0.00   0.65    4.00    4.00    4.00    2.63    1.58    0.83    0.00    0.00    0.00    0.00      0      0      0       0      89 12.35
 1981 227    63    61   21.0      3   2.20   2613   1535      0    921   4148   4400      0    0.0  0.000    252      0  0.000  0.000  0.244  0.000  0.000  0.000  0.000   1.32   0.00   0.06      0    252     84.3   1.39   0.00   0.65    4.00    4.00    4.00    2.74    1.59    0.87    0.00    0.00    0.00    0.00      0      0      0       0      94 11.95
 1981 228    64    62   21.0      3   2.17   2637   1572      0    927   4209   4500      0    0.0  0.000    291      0  0.000  0.000  0.244  0.000  0.000  0.000  0.000   1.31   0.00   0.06      0    291     82.1   1.39   0.00   0.65    4.00    4.00    4.00    2.76    1.59    0.88    0.00    0.00    0.00    0.00      0      0      0       0      98 11.40
 1981 229    65    63   21.0      3   2.13   2663   1585      0    962   4247   4606      0    0.0  0.000    358      0  0.000  0.000  0.241  0.000  0.000  0.000  0.000   1.30   0.00   0.08      0    358     80.1   1.39   0.00   0.65    4.00    4.00    4.00    2.88    1.60    0.91    0.00    0.00    0.00    0.00      0      0      0       0     103 12.00
 1981 230    66    64   21.0      3   2.10   2689   1626      0   1007   4315   4715      0    0.0  0.000    400      0  0.000  0.000  0.240  0.000  0.000  0.000  0.000   1.29   0.00   0.08      0    400     78.2   1.39   0.00   0.65    4.00    4.00    4.00    3.04    1.62    0.95    0.00    0.00    0.00    0.00      0      0      0       0     108 12.40
 1981 231    67    65   21.0      3   2.07   2716   1667      0   1055   4383   4824      0    0.0  0.000    441      0  0.000  0.000  0.233  0.000  0.000  0.000  0.000   1.28   0.00   0.09      0    441     76.3   1.39   0.00   0.65    4.00    4.00    4.00    3.21    1.65    0.99    0.00    0.00    0.00    0.00      0      0      0       0     113 12.20
 1981 232    68    66   21.0      3   2.04   2742   1708      0   1086   4450   4933      0    0.0  0.000    482      0  0.000  0.000  0.233  0.000  0.000  0.000  0.000   1.27   0.00   0.10      0    482     74.5   1.39   0.00   0.65    4.00    4.00    4.00    3.33    1.66    1.01    0.00    0.00    0.00    0.00      0      0      0       0     118 12.10
 1981 233    69    67   21.0      3   2.01   2766   1747      0   1122   4513   5033      0    0.0  0.000    521      0  0.000  0.000  0.232  0.000  0.000  0.000  0.000   1.26   0.00   0.10      0    521     72.8   1.39   0.00   0.65    4.00    4.00    4.00    3.46    1.68    1.03    0.00    0.00    0.00    0.00      0      0      0       0     123 11.25
 1981 234    70    68   21.0      4   1.96   2736   1840      0   1122   4576   5137      0    0.0  0.000    561      0  0.000  0.000  0.231  0.000  0.000  0.000  0.000   1.26   0.00   0.11      0    561     71.6   1.39   0.00   0.65    4.00    4.00    4.00    3.46    1.67    1.03    0.00    0.00    0.00    0.00      0      0      0       0     129 11.65
 1981 235    71    69   21.0      4   1.91   2705   1938      0   1123   4642   5251      0    0.0  0.000    609      0  0.000  0.000  0.226  0.000  0.000  0.000  0.000   1.24   0.00   0.12      0    609     70.6   1.39   0.00   0.65    4.00    4.00    4.00    3.46    1.67    1.03    0.00    0.00    0.00    0.00      0      0      0       0     135 12.30
 1981 236    72    70   21.0      4   1.86   2671   2025      0   1123   4696   5351      0    0.0  0.000    655      0  0.000  0.000  0.225  0.000  0.000  0.000  0.000   1.24   0.00   0.12      0    655     69.6   1.39   0.00   0.65    4.00    4.00    4.00    3.47    1.66    1.03    0.00    0.00    0.00    0.00      0      0      0       0     140 11.65
 1981 237    73    71   21.0      4   1.81   2636   2119      0   1124   4755   5462      0    0.0  0.000    707      0  0.000  0.000  0.221  0.000  0.000  0.000  0.000   1.23   0.00   0.13      0    707     68.7   1.39   0.00   0.65    4.00    4.00    4.00    3.47    1.66    1.03    0.00    0.00    0.00    0.00      0      0      0       0     146 12.20
 1981 238    74    72   21.0      4   1.76   2599   2204      0   1124   4803   5562      0    0.0  0.000    759      0  0.000  0.000  0.215  0.000  0.000  0.000  0.000   1.23   0.00   0.14      0    759     67.9   1.39   0.00   0.65    4.00    4.00    4.00    3.47    1.65    1.03    0.00    0.00    0.00    0.00      0      0      0       0     151 12.40
 1981 239    75    73   21.0      4   1.72   2560   2298      0   1125   4859   5677      0    0.0  0.000    819      0  0.000  0.000  0.211  0.000  0.000  0.000  0.000   1.22   0.00   0.14      0    819     67.2   1.39   0.00   0.65    4.00    4.00    4.00    3.48    1.65    1.03    0.00    0.00    0.00    0.00      0      0      0       0     157 12.10
 1981 240    76    74   21.0      4   1.68   2520   2397      0   1127   4917   5802      0    0.0  0.000    885      0  0.000  0.000  0.205  0.000  0.000  0.000  0.000   1.21   0.00   0.15      0    885     66.5   1.39   0.00   0.65    4.00    4.00    4.00    3.49    1.64    1.03    0.00    0.00    0.00    0.00      0      0      0       0     163 12.20
 1981 241    77    75   21.0      4   1.63   2478   2492      0   1128   4969   5921      0    0.0  0.000    952      0  0.000  0.000  0.200  0.000  0.000  0.000  0.000   1.21   0.00   0.16      0    952     66.0   1.39   0.00   0.65    4.00    4.00    4.00    3.49    1.64    1.03    0.00    0.00    0.00    0.00      0      0      0       0     168 12.00
 1981 242    78    76   21.0      4   1.59   2434   2571      0   1129   5005   6016      0    0.0  0.000   1010      0  0.000  0.000  0.198  0.000  0.000  0.000  0.000   1.21   0.00   0.17      0   1010     65.5   1.39   0.00   0.65    4.00    4.00    4.00    3.50    1.64    1.02    0.00    0.00    0.00    0.00      0      0      0       0     174 12.15
 1981 243    79    77   21.0      4   1.56   2388   2642      0   1128   5030   6094      0    0.0  0.000   1064      0  0.000  0.000  0.195  0.000  0.000  0.000  0.000   1.21   0.00   0.17      0   1064     65.1   1.39   0.00   0.65    4.00    4.00    4.00    3.50    1.63    1.02    0.00    0.00    0.00    0.00      0      0      0       0     180 12.30
 1981 244    80    78   21.0      4   1.52   2341   2706      0   1128   5047   6161      0    0.0  0.000   1115      0  0.000  0.000  0.193  0.000  0.000  0.000  0.000   1.21   0.00   0.18      0   1115     64.8   1.39   0.00   0.65    4.00    4.00    4.00    3.50    1.62    1.02    0.00    0.00    0.00    0.00      0      0      0       0     185 10.95
 1981 245    81    79   21.0      4   1.48   2292   2808      0   1130   5101   6301      0    0.0  0.000   1200      0  0.000  0.000  0.188  0.000  0.000  0.000  0.000   1.21   0.00   0.19      0   1200     64.7   1.39   0.00   0.65    4.00    4.00    4.00    3.51    1.62    1.02    0.00    0.00    0.00    0.00      0      0      0       0     191 12.30