*N2O emissions output file

*DSSAT Cropping System Model Ver. 4.7.5.008 -release  MAY 04, 2021 17:13:31

*RUN   1        : ET-SIMAGRI                MZCER047 ETMZdddd    1
 MODEL          : MZCER047 - Maize
 EXPERIMENT     : ETMZdddd SN MELKSSAL
 DATA PATH      : C:\IRI\Python_Dash\ET_DSS_hist\TEST\
 TREATMENT  1   : ET-SIMAGRI                MZCER047
  
!              |---------------------------------- Cumulative ---------------------------------|---------------------------------- Daily --------------------------------------|
!               N2Oemit  N2emit  NOemit     CO2   Denit  Nitrif   N2O-denit+nit      N2      NO N2Oemit  N2emit  NOemit     CO2   Denit  Nitrif   N2O-denit+nit      N2      NO   Denitrification (g[N]/ha) by soil depth (cm):                                   Nitrification (g[N]/ha) by soil depth (cm):                                     N2O flux (g[N]/ha) by soil depth (cm):                                          N2 flux (g[N]/ha) by soil depth (cm):                                           NO flux (g[N]/ha) by soil depth (cm):
!                 kg/ha   kg/ha   kg/ha   kg/ha   kg/ha   kg/ha   kg/ha   kg/ha   kg/ha   kg/ha    g/ha    g/ha    g/ha    g/ha    g/ha    g/ha    g/ha    g/ha    g/ha    g/ha     0-5    5-15   15-20   20-35   35-50   50-65   65-81   81-97  97-118 118-200     0-5    5-15   15-20   20-35   35-50   50-65   65-81   81-97  97-118 118-200     0-5    5-15   15-20   20-35   35-50   50-65   65-81   81-97  97-118 118-200     0-5    5-15   15-20   20-35   35-50   50-65   65-81   81-97  97-118 118-200     0-5    5-15   15-20   20-35   35-50   50-65   65-81   81-97  97-118 118-200
@YEAR DOY   DAS   N2OEC    N2EC    NOEC   CO2TC    NDNC    NITC   N2ODC   N2ONC   N2FLC   NOFLC   N2OED    N2ED    NOED   CO2TD    NDND   NITRD   N2ODD   N2OND   N2FLD   NOFLD   NDN1D   NDN2D   NDN3D   NDN4D   NDN5D   NDN6D   NDN7D   NDN8D   NDN9D   NDN10   NIT1D   NIT2D   NIT3D   NIT4D   NIT5D   NIT6D   NIT7D   NIT8D   NIT9D   NIT10   N2O1D   N2O2D   N2O3D   N2O4D   N2O5D   N2O6D   N2O7D   N2O8D   N2O9D   N2O10   N2F1D   N2F2D   N2F3D   N2F4D   N2F5D   N2F6D   N2F7D   N2F8D   N2F9D   N2F10   NOF1D   NOF2D   NOF3D   NOF4D   NOF5D   NOF6D   NOF7D   NOF8D   NOF9D   NOF10
 1981 165     1    0.00    0.00    0.00      16    0.00     1.3   0.000   0.001   0.000   0.004     0.0     0.0     0.1   15742     0.0    1318    0.00    1.32    0.00    3.98     0.0     0.0     0.0     0.0     0.0     0.0     0.0     0.0     0.0     0.0     40.     78.     38.    112.     99.     96.     90.     88.    142.    144.     0.0     0.1     0.0     0.1     0.1     0.1     0.1     0.1     0.1     0.1     0.0     0.0     0.0     0.0     0.0     0.0     0.0     0.0     0.0     0.0     0.2     0.4     0.2     0.5     0.4     0.4     0.5     0.5     0.2     0.2
 1981 166     2    0.00    0.00    0.00      31    0.00     2.5   0.000   0.003   0.000   0.008     0.0     0.0     0.1   15681     0.0    1210    0.00    1.21    0.00    3.89     0.0     0.0     0.0     0.0     0.0     0.0     0.0     0.0     0.0     0.0     49.     96.     47.    118.     99.     97.     81.     79.    114.    117.     0.0     0.1     0.0     0.1     0.1     0.1     0.1     0.1     0.1     0.1     0.0     0.0     0.0     0.0     0.0     0.0     0.0     0.0     0.0     0.0     0.2     0.5     0.2     0.5     0.4     0.4     0.5     0.5     0.2     0.2
 1981 167     3    0.00    0.00    0.00      47    0.00     3.7   0.000   0.004   0.000   0.012     0.0     0.0     0.2   15539     0.0    1140    0.00    1.14    0.00    3.79     0.0     0.0     0.0     0.0     0.0     0.0     0.0     0.0     0.0     0.0     51.    100.     49.    119.     98.     96.     76.     75.    100.    103.     0.1     0.1     0.0     0.1     0.1     0.1     0.1     0.1     0.1     0.1     0.0     0.0     0.0     0.0     0.0     0.0     0.0     0.0     0.0     0.0     0.2     0.5     0.2     0.5     0.4     0.4     0.5     0.4     0.2     0.2
 1981 168     4    0.00    0.00    0.00      63    0.00     4.8   0.000   0.005   0.000   0.015     0.1     0.0     0.3   15644     0.0    1126    0.00    1.13    0.00    3.81     0.0     0.0     0.0     0.0     0.0     0.0     0.0     0.0     0.0     0.0     53.    104.     51.    122.    100.     98.     76.     74.     95.     98.     0.1     0.1     0.1     0.1     0.1     0.1     0.1     0.1     0.1     0.1     0.0     0.0     0.0     0.0     0.0     0.0     0.0     0.0     0.0     0.0     0.3     0.5     0.2     0.6     0.4     0.4     0.5     0.4     0.2     0.2
 1981 169     5    0.00    0.00    0.00      78    0.00     5.9   0.000   0.006   0.000   0.019     0.1     0.0     0.4   15562     0.0    1100    0.00    1.10    0.00    3.76     0.0     0.0     0.0     0.0     0.0     0.0     0.0     0.0     0.0     0.0     53.    104.     51.    121.     99.     97.     74.     73.     92.     94.     0.1     0.1     0.1     0.1     0.1     0.1     0.1     0.1     0.1     0.1     0.0     0.0     0.0     0.0     0.0     0.0     0.0     0.0     0.0     0.0     0.3     0.5     0.2     0.5     0.4     0.4     0.4     0.4     0.2     0.2
 1981 170     6    0.00    0.00    0.00      94    0.00     7.0   0.000   0.007   0.000   0.023     0.1     0.0     0.5   15780     0.0    1118    0.00    1.12    0.00    3.85     0.0     0.0     0.0     0.0     0.0     0.0     0.0     0.0     0.0     0.0     54.    107.     53.    124.    102.     99.     76.     74.     92.     95.     0.1     0.1     0.1     0.1     0.1     0.1     0.1     0.1     0.1     0.1     0.0     0.0     0.0     0.0     0.0     0.0     0.0     0.0     0.0     0.0     0.3     0.5     0.3     0.6     0.4     0.4     0.5     0.4     0.2     0.2
 1981 171     7    0.00    0.00    0.00     110    0.00     8.1   0.000   0.008   0.000   0.027     0.1     0.0     0.6   15767     0.0    1107    0.00    1.11    0.00    3.83     0.0     0.0     0.0     0.0     0.0     0.0     0.0     0.0     0.0     0.0     54.    106.     53.    123.    101.     99.     75.     74.     91.     93.     0.1     0.1     0.1     0.1     0.1     0.1     0.1     0.1     0.1     0.1     0.0     0.0     0.0     0.0     0.0     0.0     0.0     0.0     0.0     0.0     0.3     0.5     0.2     0.6     0.4     0.4     0.5     0.4     0.2     0.2
 1981 172     8    0.00    0.00    0.00     125    0.00     9.2   0.000   0.009   0.000   0.031     0.1     0.0     0.7   15719     0.0    1095    0.00    1.10    0.00    3.79     0.0     0.0     0.0     0.0     0.0     0.0     0.0     0.0     0.0     0.0     50.    106.     52.    122.    100.     98.     75.     73.     91.     93.     0.1     0.1     0.1     0.1     0.1     0.1     0.1     0.1     0.1     0.1     0.0     0.0     0.0     0.0     0.0     0.0     0.0     0.0     0.0     0.0     0.3     0.5     0.2     0.6     0.4     0.4     0.4     0.4     0.1     0.2
 1981 173     9    0.00    0.00    0.00     141    0.00    10.3   0.000   0.010   0.000   0.034     0.2     0.0     0.8   15366     0.0    1055    0.00    1.05    0.00    3.65     0.0     0.0     0.0     0.0     0.0     0.0     0.0     0.0     0.0     0.0     47.    101.     50.    117.     96.     95.     72.     71.     88.     90.     0.0     0.1     0.1     0.1     0.1     0.1     0.1     0.1     0.1     0.1     0.0     0.0     0.0     0.0     0.0     0.0     0.0     0.0     0.0     0.0     0.3     0.5     0.2     0.5     0.4     0.4     0.4     0.4     0.1     0.1
 1981 174    10    0.00    0.00    0.00     156    0.00    11.3   0.000   0.011   0.000   0.038     0.2     0.0     0.9   15419     0.0    1067    0.00    1.07    0.00    3.70     0.0     0.0     0.0     0.0     0.0     0.0     0.0     0.0     0.0     0.0     47.    103.     51.    119.     98.     96.     73.     72.     88.     91.     0.0     0.1     0.1     0.1     0.1     0.1     0.1     0.1     0.1     0.1     0.0     0.0     0.0     0.0     0.0     0.0     0.0     0.0     0.0     0.0     0.3     0.5     0.2     0.5     0.4     0.4     0.4     0.4     0.1     0.1
 1981 175    11    0.00    0.00    0.01     172    0.00    12.4   0.000   0.012   0.000   0.052     0.2     0.0     1.3   15298     0.0    1056    0.00    1.06    0.00   13.74     0.0     0.0     0.0     0.0     0.0     0.0     0.0     0.0     0.0     0.0     46.    102.     50.    118.     97.     95.     72.     71.     88.     90.     0.0     0.1     0.1     0.1     0.1     0.1     0.1     0.1     0.1     0.1     0.0     0.0     0.0     0.0     0.0     0.0     0.0     0.0     0.0     0.0     1.0     1.8     0.9     2.0     1.4     1.3     1.6     1.6     0.5     0.6
 1981 176    12    0.00    0.00    0.01     187    0.00    13.5   0.000   0.013   0.000   0.063     0.2     0.0     1.4   15214     0.0    1067    0.00    1.07    0.00   11.19     0.0     0.0     0.0     0.0     0.0     0.0     0.0     0.0     0.0     0.0     62.    101.     50.    117.     96.     94.     72.     71.     87.     89.     0.1     0.1     0.0     0.1     0.1     0.1     0.1     0.1     0.1     0.1     0.0     0.0     0.0     0.0     0.0     0.0     0.0     0.0     0.0     0.0     0.9     1.5     0.7     1.6     1.1     1.1     1.3     1.3     0.4     0.4
 1981 177    13    0.00    0.00    0.01     202    0.00    14.5   0.000   0.015   0.000   0.072     0.2     0.0     1.6   15417     0.0    1085    0.00    1.08    0.00    9.22     0.0     0.0     0.0     0.0     0.0     0.0     0.0     0.0     0.0     0.0     57.    104.     51.    121.     99.     97.     74.     72.     89.     91.     0.1     0.1     0.1     0.1     0.1     0.1     0.1     0.1     0.1     0.1     0.0     0.0     0.0     0.0     0.0     0.0     0.0     0.0     0.0     0.0     0.7     1.2     0.6     1.4     0.9     0.9     1.1     1.1     0.4     0.4
 1981 178    14    0.00    0.00    0.01     218    0.00    15.6   0.000   0.016   0.000   0.080     0.3     0.0     1.8   15584     0.0    1097    0.00    1.10    0.00    7.58     0.0     0.0     0.0     0.0     0.0     0.0     0.0     0.0     0.0     0.0     55.    106.     52.    122.    100.     98.     75.     73.     90.     92.     0.1     0.1     0.1     0.1     0.1     0.1     0.1     0.1     0.1     0.1     0.0     0.0     0.0     0.0     0.0     0.0     0.0     0.0     0.0     0.0     0.5     1.0     0.5     1.1     0.8     0.7     0.9     0.9     0.3     0.3
 1981 179    15    0.00    0.00    0.01     233    0.00    16.7   0.000   0.017   0.000   0.086     0.3     0.0     2.0   15184     0.0    1048    0.00    1.05    0.00    5.86     0.0     0.0     0.0     0.0     0.0     0.0     0.0     0.0     0.0     0.0     51.    100.     49.    116.     95.     94.     71.     70.     87.     89.     0.1     0.1     0.0     0.1     0.1     0.1     0.1     0.1     0.1     0.1     0.0     0.0     0.0     0.0     0.0     0.0     0.0     0.0     0.0     0.0     0.4     0.8     0.4     0.9     0.6     0.6     0.7     0.7     0.2     0.2
 1981 180    16    0.00    0.00    0.01     248    0.00    17.7   0.000   0.018   0.000   0.090     0.3     0.0     2.1   14604     0.0    1025    0.00    1.03    0.00    4.65     0.0     0.0     0.0     0.0     0.0     0.0     0.0     0.0     0.0     0.0     49.     97.     48.    113.     93.     91.     70.     69.     85.     87.     0.0     0.1     0.0     0.1     0.1     0.1     0.1     0.1     0.1     0.1     0.0     0.0     0.0     0.0     0.0     0.0     0.0     0.0     0.0     0.0     0.3     0.6     0.3     0.7     0.5     0.5     0.6     0.5     0.2     0.2
 1981 181    17    0.00    0.00    0.02     262    0.00    18.7   0.000   0.019   0.000   0.094     0.3     0.0     2.2   14814     0.0    1032    0.00    1.03    0.00    3.78     0.0     0.0     0.0     0.0     0.0     0.0     0.0     0.0     0.0     0.0     47.     91.     46.    116.     95.     94.     71.     70.     87.     89.     0.0     0.1     0.0     0.1     0.1     0.1     0.1     0.1     0.1     0.1     0.0     0.0     0.0     0.0     0.0     0.0     0.0     0.0     0.0     0.0     0.2     0.5     0.2     0.6     0.4     0.4     0.5     0.5     0.2     0.2
 1981 182    18    0.00    0.00    0.02     277    0.00    19.8   0.000   0.020   0.000   0.098     0.3     0.0     2.3   14688     0.0    1019    0.00    1.02    0.00    3.46     0.0     0.0     0.0     0.0     0.0     0.0     0.0     0.0     0.0     0.0     48.     86.     43.    115.     94.     93.     71.     70.     86.     88.     0.0     0.1     0.0     0.1     0.1     0.1     0.1     0.1     0.1     0.1     0.0     0.0     0.0     0.0     0.0     0.0     0.0     0.0     0.0     0.0     0.2     0.4     0.2     0.5     0.4     0.4     0.4     0.4     0.1     0.1
 1981 183    19    0.00    0.00    0.02     291    0.00    20.7   0.000   0.021   0.000   0.101     0.4     0.0     2.4   14166     0.0     974    0.00    0.97    0.00    3.30     0.0     0.0     0.0     0.0     0.0     0.0     0.0     0.0     0.0     0.0     47.     78.     40.    109.     90.     89.     68.     67.     83.     85.     0.0     0.1     0.0     0.1     0.1     0.1     0.1     0.1     0.1     0.1     0.0     0.0     0.0     0.0     0.0     0.0     0.0     0.0     0.0     0.0     0.2     0.4     0.2     0.5     0.3     0.3     0.4     0.4     0.1     0.1
 1981 184    20    0.00    0.00    0.02     305    0.00    21.7   0.000   0.022   0.000   0.104     0.4     0.0     2.5   13935     0.0     974    0.00    0.97    0.00    3.30     0.0     0.0     0.0     0.0     0.0     0.0     0.0     0.0     0.0     0.0     44.     77.     40.    110.     91.     89.     68.     67.     83.     86.     0.0     0.1     0.0     0.1     0.1     0.1     0.1     0.1     0.1     0.1     0.0     0.0     0.0     0.0     0.0     0.0     0.0     0.0     0.0     0.0     0.2     0.4     0.2     0.5     0.3     0.3     0.4     0.4     0.1     0.1
 1981 185    21    0.00    0.00    0.03     319    0.00    22.7   0.000   0.023   0.000   0.107     0.4     0.0     2.6   14088     0.0     967    0.00    0.97    0.00    3.25     0.0     0.0     0.0     0.0     0.0     0.0     0.0     0.0     0.0     0.0     41.     74.     39.    107.     91.     90.     69.     67.     84.     86.     0.0     0.1     0.0     0.1     0.1     0.1     0.1     0.1     0.1     0.1     0.0     0.0     0.0     0.0     0.0     0.0     0.0     0.0     0.0     0.0     0.2     0.4     0.2     0.5     0.3     0.3     0.4     0.4     0.1     0.1
 1981 186    22    0.00    0.00    0.03     333    0.00    23.6   0.000   0.024   0.000   0.111     0.4     0.0     2.4   13943     0.0     948    0.00    0.95    0.00    3.13     0.0     0.0     0.0     0.0     0.0     0.0     0.0     0.0     0.0     0.0     43.     74.     37.    102.     89.     88.     67.     66.     82.     85.     0.0     0.1     0.0     0.1     0.1     0.1     0.1     0.1     0.1     0.1     0.0     0.0     0.0     0.0     0.0     0.0     0.0     0.0     0.0     0.0     0.2     0.3     0.2     0.5     0.3     0.3     0.4     0.4     0.1     0.1
 1981 187    23    0.01    0.00    0.03     347    0.00    24.6   0.000   0.025   0.000   0.114     0.4     0.0     2.7   13606     0.0     936    0.00    0.94    0.00    3.15     0.0     0.0     0.0     0.0     0.0     0.0     0.0     0.0     0.0     0.0     44.     79.     34.     97.     87.     86.     66.     65.     81.     83.     0.0     0.1     0.0     0.1     0.1     0.1     0.1     0.1     0.1     0.1     0.0     0.0     0.0     0.0     0.0     0.0     0.0     0.0     0.0     0.0     0.2     0.4     0.2     0.4     0.3     0.3     0.4     0.4     0.1     0.1
 1981 188    24    0.01    0.00    0.03     361    0.00    25.5   0.000   0.026   0.000   0.117     0.5     0.0     2.8   13868     0.0     974    0.00    0.97    0.00    3.29     0.0     0.0     0.0     0.0     0.0     0.0     0.0     0.0     0.0     0.0     48.     83.     35.    101.     91.     90.     69.     68.     84.     86.     0.0     0.1     0.0     0.1     0.1     0.1     0.1     0.1     0.1     0.1     0.0     0.0     0.0     0.0     0.0     0.0     0.0     0.0     0.0     0.0     0.2     0.4     0.2     0.5     0.3     0.3     0.4     0.4     0.1     0.1
 1981 189    25    0.01    0.00    0.04     375    0.00    26.5   0.000   0.027   0.000   0.120     0.5     0.0     2.9   14103     0.0    1009    0.00    1.01    0.00    3.42     0.0     0.0     0.0     0.0     0.0     0.0     0.0     0.0     0.0     0.0     49.     85.     35.    104.     96.     94.     72.     71.     87.     89.     0.0     0.1     0.0     0.1     0.1     0.1     0.1     0.1     0.1     0.1     0.0     0.0     0.0     0.0     0.0     0.0     0.0     0.0     0.0     0.0     0.2     0.4     0.2     0.5     0.4     0.4     0.4     0.4     0.1     0.1
 1981 190    26    0.01    0.00    0.04     389    0.00    27.5   0.000   0.028   0.000   0.124     0.5     0.0     3.0   13878     0.0     981    0.00    0.98    0.00    3.31     0.0     0.0     0.0     0.0     0.0     0.0     0.0     0.0     0.0     0.0     44.     77.     33.    101.     94.     93.     71.     70.     86.     88.     0.0     0.1     0.0     0.1     0.1     0.1     0.1     0.1     0.1     0.1     0.0     0.0     0.0     0.0     0.0     0.0     0.0     0.0     0.0     0.0     0.2     0.4     0.2     0.5     0.4     0.3     0.4     0.4     0.1     0.1
 1981 191    27    0.01    0.00    0.04     402    0.00    28.5   0.000   0.028   0.000   0.127     0.5     0.0     3.1   13431     0.0     933    0.00    0.93    0.00    3.13     0.0     0.0     0.0     0.0     0.0     0.0     0.0     0.0     0.0     0.0     37.     67.     30.     95.     90.     89.     68.     67.     83.     86.     0.0     0.1     0.0     0.1     0.1     0.1     0.1     0.1     0.1     0.1     0.0     0.0     0.0     0.0     0.0     0.0     0.0     0.0     0.0     0.0     0.2     0.3     0.1     0.4     0.3     0.3     0.4     0.4     0.1     0.1
 1981 192    28    0.01    0.00    0.05     416    0.00    29.4   0.000   0.029   0.000   0.130     0.3     0.0     1.9   13620     0.0     896    0.00    0.90    0.00    2.86     0.0     0.0     0.0     0.0     0.0     0.0     0.0     0.0     0.0     0.0     27.     61.     28.     90.     88.     87.     67.     66.     82.     84.     0.0     0.1     0.0     0.1     0.1     0.1     0.1     0.1     0.1     0.1     0.0     0.0     0.0     0.0     0.0     0.0     0.0     0.0     0.0     0.0     0.0     0.3     0.1     0.4     0.3     0.3     0.4     0.4     0.1     0.1
 1981 193    29    0.01    0.00    0.05     429    0.00    30.2   0.000   0.030   0.000   0.132     0.3     0.0     1.4   13588     0.0     874    0.00    0.87    0.00    2.58     0.0     0.0     0.0     0.0     0.0     0.0     0.0     0.0     0.0     0.0     28.     65.     26.     84.     85.     84.     65.     64.     79.     82.     0.0     0.1     0.0     0.1     0.1     0.1     0.1     0.1     0.1     0.1     0.0     0.0     0.0     0.0     0.0     0.0     0.0     0.0     0.0     0.0     0.0     0.2     0.1     0.4     0.3     0.3     0.4     0.4     0.1     0.1
 1981 194    30    0.01    0.00    0.05     443    0.00    31.0   0.000   0.031   0.000   0.134     0.2     0.0     1.4   13352     0.0     817    0.00    0.82    0.00    2.09     0.0     0.0     0.0     0.0     0.0     0.0     0.0     0.0     0.0     0.0     31.     54.     23.     77.     68.     80.     62.     61.     76.     79.     0.0     0.1     0.0     0.1     0.1     0.1     0.1     0.1     0.1     0.1     0.0     0.0     0.0     0.0     0.0     0.0     0.0     0.0     0.0     0.0     0.0     0.0     0.0     0.2     0.2     0.3     0.4     0.4     0.1     0.1
 1981 195    31    0.01    0.00    0.05     456    0.00    32.0   0.000   0.032   0.000   0.137     0.6     0.0     3.2   13384     0.0     920    0.00    0.92    0.00    2.89     0.0     0.0     0.0     0.0     0.0     0.0     0.0     0.0     0.0     0.0     52.     92.     41.     91.     75.     81.     63.     62.     77.     80.     0.1     0.1     0.0     0.1     0.1     0.1     0.1     0.1     0.1     0.1     0.0     0.0     0.0     0.0     0.0     0.0     0.0     0.0     0.0     0.0     0.2     0.3     0.1     0.4     0.3     0.3     0.4     0.4     0.1     0.1
 1981 196    32    0.01    0.00    0.06     470    0.00    32.9   0.000   0.033   0.000   0.141     0.6     0.0     3.4   13643     0.0     965    0.00    0.96    0.00    3.28     0.0     0.0     0.0     0.0     0.0     0.0     0.0     0.0     0.0     0.0     49.     92.     45.     99.     95.     84.     65.     64.     79.     82.     0.0     0.1     0.0     0.1     0.1     0.1     0.1     0.1     0.1     0.1     0.0     0.0     0.0     0.0     0.0     0.0     0.0     0.0     0.0     0.0     0.2     0.4     0.2     0.4     0.4     0.3     0.4     0.4     0.1     0.1
 1981 197    33    0.01    0.00    0.06     483    0.00    33.9   0.000   0.034   0.000   0.144     0.6     0.0     3.4   13806     0.0     975    0.00    0.97    0.00    3.31     0.0     0.0     0.0     0.0     0.0     0.0     0.0     0.0     0.0     0.0     48.     92.     45.    103.     92.     86.     66.     65.     81.     83.     0.0     0.1     0.0     0.1     0.1     0.1     0.1     0.1     0.1     0.1     0.0     0.0     0.0     0.0     0.0     0.0     0.0     0.0     0.0     0.0     0.2     0.4     0.2     0.5     0.3     0.3     0.4     0.4     0.1     0.1
 1981 198    34    0.01    0.00    0.06     497    0.00    34.9   0.000   0.035   0.000   0.147     0.7     0.0     3.4   13830     0.0     985    0.00    0.98    0.00    3.35     0.0     0.0     0.0     0.0     0.0     0.0     0.0     0.0     0.0     0.0     47.     93.     46.    106.     91.     87.     67.     66.     82.     84.     0.0     0.1     0.0     0.1     0.1     0.1     0.1     0.1     0.1     0.1     0.0     0.0     0.0     0.0     0.0     0.0     0.0     0.0     0.0     0.0     0.2     0.4     0.2     0.5     0.3     0.3     0.4     0.4     0.1     0.1
 1981 199    35    0.01    0.00    0.06     511    0.00    35.9   0.000   0.036   0.000   0.150     0.5     0.0     2.5   14024     0.0     976    0.00    0.98    0.00    3.19     0.0     0.0     0.0     0.0     0.0     0.0     0.0     0.0     0.0     0.0     39.     89.     46.    107.     90.     88.     67.     66.     82.     85.     0.0     0.1     0.0     0.1     0.1     0.1     0.1     0.1     0.1     0.1     0.0     0.0     0.0     0.0     0.0     0.0     0.0     0.0     0.0     0.0     0.1     0.4     0.2     0.5     0.3     0.3     0.4     0.4     0.1     0.1
 1981 200    36    0.01    0.00    0.07     525    0.00    36.8   0.000   0.037   0.000   0.153     0.3     0.0     1.7   13892     0.0     948    0.00    0.95    0.00    2.96     0.0     0.0     0.0     0.0     0.0     0.0     0.0     0.0     0.0     0.0     32.     88.     42.    105.     87.     86.     66.     65.     81.     83.     0.0     0.1     0.0     0.1     0.1     0.1     0.1     0.1     0.1     0.1     0.0     0.0     0.0     0.0     0.0     0.0     0.0     0.0     0.0     0.0     0.0     0.3     0.2     0.5     0.3     0.3     0.4     0.4     0.1     0.1
 1981 201    37    0.01    0.00    0.07     539    0.00    37.8   0.000   0.038   0.000   0.157     0.7     0.0     3.5   13738     0.0     957    0.00    0.96    0.00    3.19     0.0     0.0     0.0     0.0     0.0     0.0     0.0     0.0     0.0     0.0     52.     87.     43.    103.     86.     84.     65.     64.     80.     82.     0.1     0.1     0.0     0.1     0.1     0.1     0.1     0.1     0.1     0.1     0.0     0.0     0.0     0.0     0.0     0.0     0.0     0.0     0.0     0.0     0.2     0.4     0.2     0.5     0.3     0.3     0.4     0.4     0.1     0.1
 1981 202    38    0.01    0.00    0.07     553    0.00    38.7   0.000   0.039   0.000   0.159     0.4     0.0     1.7   13608     0.0     929    0.00    0.93    0.00    2.94     0.0     0.0     0.0     0.0     0.0     0.0     0.0     0.0     0.0     0.0     32.     87.     43.    102.     84.     83.     64.     63.     79.     82.     0.0     0.1     0.0     0.1     0.1     0.1     0.1     0.1     0.1     0.1     0.0     0.0     0.0     0.0     0.0     0.0     0.0     0.0     0.0     0.0     0.0     0.4     0.2     0.5     0.3     0.3     0.4     0.4     0.1     0.1
 1981 203    39    0.01    0.00    0.08     566    0.00    39.7   0.000   0.040   0.000   0.163     0.8     0.0     3.7   13570     0.1     949    0.00    0.95    0.15    3.15     0.1     0.0     0.0     0.0     0.0     0.0     0.0     0.0     0.0     0.0     52.     87.     43.    102.     84.     83.     64.     63.     79.     82.     0.1     0.1     0.0     0.1     0.1     0.1     0.1     0.1     0.1     0.1     0.1     0.0     0.0     0.0     0.0     0.0     0.0     0.0     0.0     0.0     0.2     0.4     0.2     0.5     0.3     0.3     0.4     0.4     0.1     0.1
 1981 204    40    0.01    0.00    0.08     580    0.00    40.6   0.000   0.041   0.000   0.166     0.9     0.0     4.1   13431     0.0     935    0.00    0.93    0.00    3.16     0.0     0.0     0.0     0.0     0.0     0.0     0.0     0.0     0.0     0.0     48.     86.     42.    100.     83.     82.     63.     63.     78.     81.     0.0     0.1     0.0     0.1     0.1     0.1     0.1     0.1     0.1     0.1     0.0     0.0     0.0     0.0     0.0     0.0     0.0     0.0     0.0     0.0     0.2     0.4     0.2     0.5     0.3     0.3     0.4     0.4     0.1     0.1
 1981 205    41    0.01    0.00    0.08     593    0.00    41.5   0.000   0.041   0.000   0.168     0.4     0.0     1.7   13380     0.0     866    0.00    0.87    0.00    2.34     0.0     0.0     0.0     0.0     0.0     0.0     0.0     0.0     0.0     0.0     31.     71.     35.    100.     70.     70.     60.     62.     78.     81.     0.0     0.1     0.0     0.1     0.1     0.1     0.1     0.1     0.1     0.1     0.0     0.0     0.0     0.0     0.0     0.0     0.0     0.0     0.0     0.0     0.0     0.1     0.0     0.4     0.2     0.3     0.4     0.4     0.1     0.1
 1981 206    42    0.01    0.00    0.08     606    0.00    42.3   0.000   0.042   0.000   0.170     0.4     0.0     1.7   13465     0.0     858    0.00    0.86    0.00    1.97     0.0     0.0     0.0     0.0     0.0     0.0     0.0     0.0     0.0     0.0     35.     75.     34.     97.     72.     72.     61.     60.     62.     81.     0.0     0.1     0.0     0.1     0.1     0.1     0.1     0.1     0.1     0.1     0.0     0.0     0.0     0.0     0.0     0.0     0.0     0.0     0.0     0.0     0.0     0.1     0.0     0.3     0.2     0.2     0.3     0.3     0.1     0.1
 1981 207    43    0.02    0.00    0.08     620    0.00    43.2   0.000   0.043   0.000   0.172     0.4     0.0     1.6   13500     0.0     856    0.00    0.86    0.00    1.72     0.0     0.0     0.0     0.0     0.0     0.0     0.0     0.0     0.0     0.0     37.     80.     36.     95.     73.     73.     60.     60.     67.     64.     0.0     0.1     0.0     0.1     0.1     0.1     0.1     0.1     0.1     0.1     0.0     0.0     0.0     0.0     0.0     0.0     0.0     0.0     0.0     0.0     0.0     0.1     0.0     0.2     0.1     0.2     0.3     0.3     0.1     0.1
 1981 208    44    0.02    0.00    0.09     633    0.00    44.0   0.000   0.044   0.000   0.173     0.3     0.0     1.5   13091     0.0     809    0.00    0.81    0.00    1.45     0.0     0.0     0.0     0.0     0.0     0.0     0.0     0.0     0.0     0.0     36.     76.     36.     90.     71.     71.     57.     57.     67.     66.     0.0     0.1     0.0     0.1     0.1     0.1     0.1     0.1     0.1     0.1     0.0     0.0     0.0     0.0     0.0     0.0     0.0     0.0     0.0     0.0     0.0     0.1     0.0     0.2     0.1     0.1     0.2     0.3     0.1     0.1
 1981 209    45    0.02    0.00    0.09     646    0.02    44.8   0.001   0.045   0.018   0.178     0.4     0.1     1.7   13094    18.9     829    1.21    0.83   17.72    4.24     0.6     0.6     0.6     0.6     4.9     7.3     4.3     0.0     0.0     0.0     39.     91.     39.     97.     75.     73.     58.     58.     68.     69.     0.0     0.1     0.0     0.1     0.4     0.7     0.4     0.1     0.1     0.1     0.6     0.6     0.6     0.6     4.6     6.7     4.0     0.0     0.0     0.0     0.0     0.2     0.0     0.2     0.7     1.1     1.4     0.2     0.1     0.1
 1981 210    46    0.02    0.00    0.09     659    0.04    45.7   0.003   0.046   0.040   0.183     0.4     0.1     1.8   13019    23.1     859    1.40    0.86   21.66    5.36     0.7     0.4     0.5     0.4     3.3     6.3     4.5     3.7     3.2     0.0     40.     93.     42.    100.     79.     75.     59.     58.     69.     71.     0.0     0.1     0.0     0.1     0.3     0.6     0.4     0.3     0.2     0.1     0.7     0.4     0.5     0.4     3.1     5.8     4.2     3.4     3.1     0.0     0.0     0.2     0.0     0.3     0.5     1.0     1.5     1.2     0.2     0.1
 1981 211    47    0.02    0.00    0.09     672    0.07    46.5   0.004   0.046   0.065   0.188     0.4     0.2     1.6   12762    26.7     823    1.51    0.82   25.16    5.18     0.7     0.9     0.6     0.6     3.2     5.7     4.5     3.9     3.6     3.1     37.     74.     36.     93.     76.     75.     58.     57.     69.     71.     0.0     0.1     0.0     0.1     0.2     0.5     0.4     0.3     0.2     0.2     0.7     0.9     0.6     0.6     3.0     5.3     4.2     3.6     3.4     3.0     0.0     0.1     0.0     0.2     0.5     0.9     1.5     1.3     0.3     0.2
 1981 212    48    0.02    0.00    0.09     685    0.11    47.3   0.006   0.047   0.100   0.193     0.4     0.3     1.6   12681    37.8     794    2.07    0.79   35.73    5.26     0.5     1.2     0.6     1.3     5.2     7.7     5.8     4.7     4.2     3.7     38.     66.     37.     79.     69.     70.     56.     56.     69.     72.     0.0     0.1     0.0     0.1     0.3     0.6     0.5     0.4     0.3     0.2     0.5     1.2     0.6     1.3     5.0     7.2     5.4     4.4     4.0     3.5     0.0     0.1     0.0     0.1     0.4     0.8     1.6     1.4     0.3     0.3