*PLANT N OUTPUT FILE

*DSSAT Cropping System Model Ver. 4.7.5.008 -release  MAY 04, 2021 17:13:26

*RUN   1        : ET-SIMAGRI                MZCER047 ETMZcccc    1
 MODEL          : MZCER047 - Maize
 EXPERIMENT     : ETMZcccc SN MELKSSAL
 DATA PATH      : C:\IRI\Python_Dash\ET_DSS_hist\TEST\
 TREATMENT  1   : ET-SIMAGRI                MZCER047
  
@YEAR DOY   DAS   DAP   CNAD   GNAD   VNAD   GN%D   VN%D   NUPC   LNAD   SNAD   LN%D   SN%D   RN%D   SNN0C   SNN1C
 1981 166     2     0    0.0    0.0    0.0   0.00   0.00    0.0    0.0    0.0    0.0   0.00   0.00    0.00    0.00
 1981 167     3     1    0.0    0.0    0.0   0.00   0.00    0.0    0.0    0.0    0.0   0.00   0.00    0.00    0.00
 1981 168     4     2    0.0    0.0    0.0   0.00   0.00    0.0    0.0    0.0    0.0   0.00   0.00    0.00    0.00
 1981 169     5     3    0.0    0.0    0.0   0.00   0.00    0.0    0.0    0.0    0.0   0.00   0.00    0.00    0.00
 1981 170     6     4    0.0    0.0    0.0   0.00   0.00    0.0    0.0    0.0    0.0   0.00   0.00    0.00    0.00
 1981 171     7     5    1.1    0.0    1.1   0.00   4.40    0.0    0.5    0.5    4.4   4.40   2.20    0.00    0.00
 1981 172     8     6    1.1    0.0    1.1   0.00   4.40    0.0    0.5    0.5    4.4   4.40   2.16    0.00    0.00
 1981 173     9     7    1.1    0.0    1.1   0.00   4.40    0.0    0.5    0.5    4.4   4.40   2.06    0.00    0.00
 1981 174    10     8    1.1    0.0    1.1   0.00   4.40    0.0    0.5    0.5    4.4   4.40   1.91    0.00    0.00
 1981 175    11     9    1.1    0.0    1.1   0.00   4.40    0.0    0.5    0.5    4.4   4.40   1.75    0.00    0.00
 1981 176    12    10    1.1    0.0    1.1   0.00   4.07    0.0    0.6    0.5    4.1   4.07   1.56    0.00    0.00
 1981 177    13    11    1.1    0.0    1.1   0.00   3.14    0.0    0.7    0.4    3.1   3.14   1.47    0.00    0.00
 1981 178    14    12    1.4    0.0    1.4   0.00   3.39    0.3    1.0    0.4    3.4   3.39   1.20    0.00    0.00
 1981 179    15    13    1.7    0.0    1.7   0.00   3.29    0.7    1.3    0.4    3.3   3.29   1.23    0.00    0.00
 1981 180    16    14    2.2    0.0    2.2   0.00   3.61    1.3    1.8    0.4    3.6   3.61   1.53    0.00    0.00
 1981 181    17    15    2.5    0.0    2.5   0.00   3.25    1.5    2.1    0.4    3.3   3.25   1.30    0.00    0.01
 1981 182    18    16    3.1    0.0    3.1   0.00   3.38    2.1    2.7    0.4    3.4   3.38   1.21    0.00    0.01
 1981 183    19    17    3.6    0.0    3.6   0.00   3.60    2.9    3.2    0.4    3.6   3.60   1.50    0.00    0.01
 1981 184    20    18    4.0    0.0    4.0   0.00   3.65    3.4    3.5    0.4    3.7   3.65   1.71    0.00    0.01
 1981 185    21    19    4.3    0.0    4.3   0.00   3.20    3.6    3.9    0.4    3.2   3.20   1.34    0.00    0.02
 1981 186    22    20    5.1    0.0    5.1   0.00   3.38    4.7    4.7    0.4    3.4   3.38   1.43    0.00    0.02
 1981 187    23    21    5.9    0.0    5.9   0.00   3.15    5.6    5.5    0.4    3.2   3.15   1.33    0.00    0.02
 1981 188    24    22    7.2    0.0    7.2   0.00   3.29    7.2    6.8    0.4    3.3   3.29   1.48    0.00    0.03
 1981 189    25    23    9.9    0.0    9.9   0.00   4.06   10.2    9.4    0.5    4.1   4.06   1.43    0.00    0.04
 1981 190    26    24   10.6    0.0   10.6   0.00   3.91   11.0   10.2    0.5    3.9   3.91   1.31    0.00    0.04
 1981 191    27    25   11.4    0.0   11.4   0.00   3.82   12.1   10.9    0.5    3.8   3.82   1.38    0.00    0.05
 1981 192    28    26   13.1    0.0   13.1   0.00   3.77   13.6   12.6    0.5    3.8   3.77   1.17    0.00    0.06
 1981 193    29    27   15.0    0.0   15.0   0.00   3.72   15.6   14.5    0.5    3.7   3.72   1.18    0.00    0.07
 1981 194    30    28   17.4    0.0   17.4   0.00   3.68   18.6   16.9    0.6    3.7   3.68   1.32    0.00    0.08
 1981 195    31    29   19.5    0.0   19.5   0.00   3.61   20.8   18.9    0.7    3.6   3.61   1.27    0.00    0.09
 1981 196    32    30   21.9    0.0   21.9   0.00   3.56   23.5   21.1    0.9    3.6   3.56   1.25    0.00    0.10
 1981 197    33    31   25.0    0.0   25.0   0.00   3.53   26.8   23.8    1.1    3.5   3.53   1.26    0.00    0.12
 1981 198    34    32   28.0    0.0   28.0   0.00   3.47   29.9   26.5    1.5    3.5   3.47   1.20    0.00    0.13
 1981 199    35    33   31.1    0.0   31.1   0.00   3.42   33.4   29.1    2.0    3.4   3.42   1.25    0.00    0.15
 1981 200    36    34   34.3    0.0   34.3   0.00   3.37   36.8   31.7    2.5    3.4   3.37   1.21    0.00    0.16
 1981 201    37    35   37.6    0.0   37.6   0.00   3.33   40.2   34.3    3.2    3.3   3.33   1.17    0.00    0.18
 1981 202    38    36   41.3    0.0   41.3   0.00   3.29   44.3   37.2    4.1    3.3   3.29   1.21    0.00    0.20
 1981 203    39    37   44.4    0.0   44.4   0.00   3.23   47.6   39.5    5.0    3.2   3.23   1.17    0.00    0.22
 1981 204    40    38   48.0    0.0   48.0   0.00   3.19   51.8   42.0    6.0    3.2   3.19   1.23    0.00    0.24
 1981 205    41    39   49.8    0.0   49.8   0.00   3.03   53.9   42.8    7.0    3.0   3.03   1.18    0.00    0.27
 1981 206    42    40   51.0    0.0   51.0   0.00   2.85   55.1   43.0    7.9    2.8   2.85   1.13    0.00    0.29
 1981 207    43    41   51.9    0.0   51.9   0.00   2.70   56.0   43.1    8.8    2.7   2.70   1.11    0.00    0.32
 1981 208    44    42   52.5    0.0   52.5   0.00   2.54   56.8   42.9    9.6    2.5   2.54   1.04    0.00    0.35
 1981 209    45    43   53.2    0.0   53.2   0.00   2.40   57.5   42.7   10.5    2.4   2.40   1.00    0.00    0.37
 1981 210    46    44   53.8    0.0   53.8   0.00   2.29   58.2   42.5   11.4    2.3   2.29   0.99    0.00    0.40
 1981 211    47    45   54.3    0.0   54.3   0.00   2.18   58.7   42.1   12.2    2.2   2.18   0.98    0.00    0.43
 1981 212    48    46   54.8    0.0   54.8   0.00   2.08   59.2   41.8   13.0    2.1   2.08   0.96    0.00    0.45
 1981 213    49    47   55.3    0.0   55.3   0.00   2.00   59.8   41.5   13.7    2.0   2.00   0.91    0.00    0.48
 1981 214    50    48   55.8    0.0   55.8   0.00   1.92   60.3   41.6   14.1    1.9   1.92   0.91    0.00    0.50
 1981 215    51    49   56.1    0.0   56.1   0.00   1.82   60.7   41.0   15.1    1.8   1.82   0.90    0.00    0.53
 1981 216    52    50   56.6    0.0   56.6   0.00   1.74   61.2   40.5   16.1    1.7   1.74   0.89    0.00    0.56
 1981 217    53    51   57.1    0.0   57.1   0.00   1.68   61.8   40.0   17.1    1.7   1.68   0.88    0.00    0.59
 1981 218    54    52   57.7    0.0   57.7   0.00   1.62   62.4   39.6   18.1    1.6   1.62   0.85    0.00    0.61
 1981 219    55    53   58.0    0.0   58.0   0.00   1.58   62.8   39.2   18.8    1.6   1.58   0.80    0.00    0.64
 1981 220    56    54   58.5    0.0   58.5   0.00   1.54   63.4   39.0   19.6    1.5   1.54   0.76    0.00    0.67
 1981 221    57    55   59.0    0.0   59.0   0.00   1.51   63.9   38.7   20.3    1.5   1.51   0.72    0.00    0.69
 1981 222    58    56   59.5    0.0   59.5   0.00   1.48   64.5   38.5   21.0    1.5   1.48   0.71    0.00    0.72
 1981 223    59    57   60.0    0.0   60.0   0.00   1.45   65.0   38.3   21.7    1.5   1.45   0.70    0.00    0.75
 1981 224    60    58   60.4    0.0   60.4   0.00   1.43   65.5   38.2   22.3    1.4   1.43   0.70    0.00    0.78
 1981 225    61    59   60.9    0.0   60.9   0.00   1.42   66.0   38.2   22.7    1.4   1.42   0.67    0.00    0.81
 1981 226    62    60   61.2    0.0   61.2   0.00   1.40   66.4   38.2   23.1    1.4   1.40   0.65    0.00    0.83
 1981 227    63    61   61.6    0.0   61.6   0.00   1.39   66.9   38.3   23.3    1.4   1.39   0.63    0.00    0.86
 1981 228    64    62   62.1    0.0   62.1   0.00   1.38   67.4   38.3   23.7    1.4   1.38   0.63    0.00    0.89
 1981 229    65    63   62.5    0.0   62.5   0.00   1.38   67.9   38.6   23.8    1.4   1.38   0.61    0.00    0.92
 1981 230    66    64   62.9    0.0   62.9   0.00   1.37   68.4   38.7   24.2    1.4   1.37   0.58    0.00    0.95
 1981 231    67    65   63.3    0.0   63.3   0.00   1.35   68.9   38.7   24.6    1.4   1.35   0.56    0.00    0.98
 1981 232    68    66   63.7    0.0   63.7   0.00   1.34   69.4   38.7   25.0    1.3   1.34   0.54    0.00    1.01
 1981 233    69    67   64.1    0.0   64.1   0.00   1.33   69.9   38.8   25.3    1.3   1.33   0.53    0.00    1.04
 1981 234    70    68   64.6    0.0   64.6   0.00   1.32   70.4   38.1   26.5    1.3   1.32   0.53    0.00    1.07
 1981 235    71    69   64.9    0.0   64.9   0.00   1.31   70.8   37.3   27.6    1.3   1.31   0.54    0.00    1.10
 1981 236    72    70   65.3    0.0   65.3   0.00   1.30   71.3   36.6   28.6    1.3   1.30   0.54    0.00    1.13
 1981 237    73    71   65.7    0.0   65.7   0.00   1.29   71.8   35.9   29.7    1.3   1.29   0.55    0.00    1.16
 1981 238    74    72   66.1    0.0   66.1   0.00   1.29   72.3   35.3   30.8    1.3   1.29   0.55    0.00    1.19
 1981 239    75    73   66.4    0.0   66.4   0.00   1.28   72.7   34.6   31.8    1.3   1.28   0.55    0.00    1.22
 1981 240    76    74   66.8    0.0   66.8   0.00   1.27   73.2   33.9   33.0    1.3   1.27   0.56    0.00    1.26
 1981 241    77    75   67.2    0.0   67.2   0.00   1.27   73.7   33.2   34.1    1.3   1.27   0.56    0.00    1.29
 1981 242    78    76   67.7    0.0   67.7   0.00   1.27   74.2   32.6   35.1    1.3   1.27   0.56    0.00    1.32
 1981 243    79    77   68.0    0.0   68.0   0.00   1.27   74.6   32.0   36.0    1.3   1.27   0.57    0.00    1.35
 1981 244    80    78   68.4    0.0   68.4   0.00   1.27   75.1   31.4   37.0    1.3   1.27   0.57    0.00    1.39
 1981 245    81    79   68.8    0.0   68.8   0.00   1.27   75.6   30.6   38.2    1.3   1.27   0.58    0.00    1.42
 1981 246    82    80   69.2    0.0   69.2   0.00   1.27   76.1   30.0   39.2    1.3   1.27   0.58    0.00    1.45
 1981 247    83    81   69.6    0.0   69.6   0.00   1.27   76.5   29.3   40.2    1.3   1.27   0.59    0.00    1.49
 1981 248    84    82   69.9    0.9   69.0   1.18   1.26   77.0   29.1   39.9    1.3   1.26   0.59    0.00    1.52
 1981 249    85    83   70.3    1.6   68.6   1.17   1.25   77.5   28.9   39.7    1.3   1.25   0.58    0.00    1.56
 1981 250    86    84   70.7    2.4   68.3   1.17   1.24   78.0   28.8   39.5    1.2   1.24   0.58    0.00    1.59
 1981 251    87    85   71.0    3.1   67.9   1.17   1.24   78.4   28.6   39.2    1.2   1.24   0.57    0.00    1.63
 1981 252    88    86   71.4    3.9   67.5   1.17   1.23   78.9   28.5   39.1    1.2   1.23   0.57    0.00    1.66
 1981 253    89    87   71.8    4.6   67.2   1.18   1.22   79.4   28.3   38.8    1.2   1.22   0.57    0.00    1.70
 1981 254    90    88   72.1    5.3   66.8   1.18   1.22   79.9   28.2   38.6    1.2   1.22   0.57    0.00    1.73
 1981 255    91    89   72.5    6.1   66.4   1.18   1.21   80.4   28.0   38.4    1.2   1.21   0.57    0.00    1.77
 1981 256    92    90   72.9    6.9   66.0   1.19   1.20   80.9   27.8   38.2    1.2   1.20   0.57    0.00    1.81
 1981 257    93    91   73.3    7.6   65.6   1.19   1.20   81.4   27.7   38.0    1.2   1.20   0.58    0.00    1.84
 1981 258    94    92   73.6    8.4   65.2   1.19   1.19   81.9   27.5   37.7    1.2   1.19   0.58    0.00    1.88
 1981 259    95    93   73.9    9.2   64.8   1.20   1.18   82.4   27.3   37.5    1.2   1.18   0.58    0.00    1.92
 1981 260    96    94   74.3    9.9   64.4   1.20   1.17   82.8   27.1   37.2    1.2   1.17   0.58    0.00    1.96
 1981 261    97    95   74.7   10.7   64.0   1.20   1.17   83.4   27.0   37.0    1.2   1.17   0.58    0.00    2.00
 1981 262    98    96   75.0   11.5   63.5   1.20   1.16   83.8   26.8   36.7    1.2   1.16   0.59    0.00    2.04
 1981 263    99    97   75.2   12.3   62.9   1.21   1.15   84.1   26.5   36.4    1.1   1.15   0.58    0.00    2.08
 1981 264   100    98   75.5   13.0   62.5   1.21   1.14   84.6   26.3   36.1    1.1   1.14   0.58    0.00    2.12
 1981 265   101    99   75.9   13.8   62.0   1.21   1.13   85.2   26.2   35.9    1.1   1.13   0.59    0.00    2.16
 1981 266   102   100   76.2   14.6   61.6   1.22   1.12   85.6   26.0   35.6    1.1   1.12   0.59    0.00    2.21
 1981 267   103   101   76.5   15.4   61.1   1.22   1.11   86.2   25.8   35.4    1.1   1.11   0.59    0.00    2.25
 1981 268   104   102   76.9   16.2   60.7   1.22   1.11   86.7   25.6   35.1    1.1   1.11   0.60    0.00    2.29
 1981 269   105   103   77.2   17.0   60.2   1.22   1.10   87.2   25.4   34.8    1.1   1.10   0.61    0.00    2.34
 1981 270   106   104   77.6   17.8   59.7   1.23   1.09   87.7   25.2   34.5    1.1   1.09   0.61    0.00    2.38
 1981 271   107   105   77.9   18.6   59.3   1.23   1.08   88.2   25.0   34.3    1.1   1.08   0.62    0.00    2.43
 1981 272   108   106   78.2   19.4   58.8   1.23   1.07   88.7   24.8   34.0    1.1   1.07   0.62    0.00    2.47
 1981 273   109   107   78.5   20.3   58.3   1.23   1.06   89.2   24.6   33.7    1.1   1.06   0.62    0.00    2.52
 1981 274   110   108   78.8   21.1   57.8   1.24   1.05   89.7   24.4   33.4    1.1   1.05   0.63    0.00    2.57
 1981 275   111   109   79.1   21.9   57.2   1.24   1.04   90.1   24.1   33.1    1.0   1.04   0.63    0.00    2.61
 1981 276   112   110   79.4   22.7   56.7   1.24   1.03   90.6   23.9   32.8    1.0   1.03   0.64    0.00    2.66
 1981 277   113   111   79.7   23.5   56.2   1.24   1.02   91.1   23.7   32.5    1.0   1.02   0.64    0.00    2.71
 1981 278   114   112   80.0   24.3   55.7   1.25   1.01   91.6   23.5   32.2    1.0   1.01   0.64    0.00    2.76
 1981 279   115   113   80.3   25.2   55.2   1.25   1.01   92.2   23.3   31.9    1.0   1.01   0.65    0.00    2.81
 1981 280   116   114   80.7   26.0   54.7   1.25   1.00   92.7   23.1   31.6    1.0   1.00   0.65    0.00    2.86
 1981 281   117   115   81.0   26.8   54.2   1.25   0.99   93.2   22.8   31.3    1.0   0.99   0.66    0.00    2.92
 1981 282   118   116   81.3   27.7   53.6   1.26   0.98   93.7   22.6   31.0    1.0   0.98   0.66    0.00    2.97
 1981 283   119   117   81.5   28.5   53.1   1.26   0.97   94.2   22.4   30.7    1.0   0.97   0.67    0.00    3.02
 1981 284   120   118   81.8   29.3   52.5   1.26   0.96   94.6   22.1   30.3    1.0   0.96   0.67    0.00    3.08
 1981 285   121   119   82.0   30.1   51.9   1.26   0.94   95.0   21.9   30.0    0.9   0.94   0.68    0.00    3.13
 1981 286   122   120   82.2   31.0   51.2   1.26   0.93   95.4   21.6   29.6    0.9   0.93   0.68    0.00    3.19
 1981 287   123   121   82.4   31.8   50.6   1.26   0.92   95.8   21.3   29.3    0.9   0.92   0.68    0.00    3.25
 1981 288   124   122   82.6   32.6   50.0   1.27   0.91   96.2   21.1   28.9    0.9   0.91   0.69    0.00    3.30
 1981 289   125   123   82.8   33.5   49.3   1.27   0.90   96.5   20.8   28.5    0.9   0.90   0.69    0.00    3.36
 1981 290   126   124   83.0   34.3   48.7   1.27   0.89   96.9   20.5   28.2    0.9   0.89   0.69    0.00    3.42
 1981 291   127   125   83.1   35.1   48.0   1.27   0.88   97.2   20.3   27.8    0.9   0.88   0.70    0.00    3.48
 1981 292   128   126   83.3   35.9   47.4   1.27   0.86   97.5   20.0   27.4    0.9   0.86   0.70    0.00    3.54
 1981 293   129   127   83.4   36.7   46.7   1.27   0.85   97.8   19.7   27.0    0.9   0.85   0.70    0.00    3.60
 1981 294   130   128   83.6   37.5   46.0   1.27   0.84   98.1   19.4   26.6    0.8   0.84   0.70    0.00    3.66
 1981 295   131   129   83.7   38.3   45.4   1.27   0.83   98.4   19.1   26.2    0.8   0.83   0.71    0.00    3.72
 1981 296   132   130   83.8   39.1   44.7   1.27   0.81   98.7   18.8   25.9    0.8   0.81   0.71    0.00    3.78
 1981 297   133   131   83.9   39.9   44.0   1.27   0.80   98.9   18.6   25.5    0.8   0.80   0.71    0.00    3.84
 1981 298   134   132   84.0   40.7   43.4   1.27   0.79   99.1   18.3   25.1    0.8   0.79   0.71    0.00    3.91
 1981 299   135   133   84.1   41.5   42.7   1.27   0.78   99.4   18.0   24.7    0.8   0.78   0.72    0.00    3.97
 1981 300   136   134   84.2   42.2   42.0   1.27   0.77   99.6   17.7   24.3    0.8   0.77   0.72    0.00    4.03
 1981 301   137   135   84.2   42.2   42.0   1.27   0.77   99.6   17.7   24.3    0.8   0.77   0.72    0.00    4.03
 1981 302   138   136   84.2   42.2   42.0   1.27   0.77   99.6   17.7   24.3    0.8   0.77   0.72    0.00    4.03
 1981 303   139   137   84.2   42.2   42.0   1.27   0.77   99.6   17.7   24.3    0.8   0.77   0.72    0.00    4.03
 1981 304   140   138   84.2   42.2   42.0   1.27   0.77   99.6   17.7   24.3    0.8   0.77   0.72    0.00    4.03
 1981 305   141   139   84.2   42.2   42.0   1.27   0.77   99.6   17.7   24.3    0.8   0.77   0.72    0.00    4.03

*DSSAT Cropping System Model Ver. 4.7.5.008 -release  MAY 04, 2021 17:13:26

*RUN   2        : ET-SIMAGRI                MZCER047 ETMZcccc    1
 MODEL          : MZCER047 - Maize
 EXPERIMENT     : ETMZcccc SN MELKSSAL
 DATA PATH      : C:\IRI\Python_Dash\ET_DSS_hist\TEST\
 TREATMENT  1   : ET-SIMAGRI                MZCER047
  
@YEAR DOY   DAS   DAP   CNAD   GNAD   VNAD   GN%D   VN%D   NUPC   LNAD   SNAD   LN%D   SN%D   RN%D   SNN0C   SNN1C
 1982 166     2     0    0.0    0.0    0.0   0.00   0.00    0.0    0.0    0.0    0.0   0.00   0.00    0.00    0.00
 1982 167     3     1    0.0    0.0    0.0   0.00   0.00    0.0    0.0    0.0    0.0   0.00   0.00    0.00    0.00
 1982 168     4     2    0.0    0.0    0.0   0.00   0.00    0.0    0.0    0.0    0.0   0.00   0.00    0.00    0.00
 1982 169     5     3    0.0    0.0    0.0   0.00   0.00    0.0    0.0    0.0    0.0   0.00   0.00    0.00    0.00
 1982 170     6     4    0.0    0.0    0.0   0.00   0.00    0.0    0.0    0.0    0.0   0.00   0.00    0.00    0.00
 1982 171     7     5    0.0    0.0    0.0   0.00   0.00    0.0    0.0    0.0    0.0   0.00   0.00    0.00    0.00
 1982 172     8     6    1.1    0.0    1.1   0.00   4.40    0.0    0.5    0.5    4.4   4.40   2.20    0.00    0.00
 1982 173     9     7    1.1    0.0    1.1   0.00   4.40    0.0    0.5    0.5    4.4   4.40   2.15    0.00    0.00
 1982 174    10     8    1.1    0.0    1.1   0.00   4.40    0.0    0.5    0.5    4.4   4.40   2.06    0.00    0.00
 1982 175    11     9    1.1    0.0    1.1   0.00   4.40    0.0    0.5    0.5    4.4   4.40   1.93    0.00    0.00
 1982 176    12    10    1.1    0.0    1.1   0.00   4.40    0.0    0.5    0.5    4.4   4.40   1.76    0.00    0.00
 1982 177    13    11    1.1    0.0    1.1   0.00   4.40    0.0    0.5    0.5    4.4   4.40   1.59    0.00    0.00
 1982 178    14    12    1.1    0.0    1.1   0.00   4.09    0.0    0.6    0.5    4.1   4.09   1.42    0.00    0.00
 1982 179    15    13    1.1    0.0    1.1   0.00   3.47    0.0    0.7    0.4    3.5   3.47   1.18    0.00    0.00
 1982 180    16    14    1.3    0.0    1.3   0.00   3.22    0.3    0.9    0.4    3.2   3.22   1.21    0.00    0.00
 1982 181    17    15    1.7    0.0    1.7   0.00   3.27    0.7    1.3    0.4    3.3   3.27   1.27    0.00    0.00
 1982 182    18    16    2.1    0.0    2.1   0.00   3.32    1.1    1.7    0.4    3.3   3.32   1.29    0.00    0.01
 1982 183    19    17    2.6    0.0    2.6   0.00   3.27    1.7    2.2    0.4    3.3   3.27   1.38    0.00    0.01
 1982 184    20    18    3.1    0.0    3.1   0.00   3.29    2.3    2.7    0.4    3.3   3.29   1.37    0.00    0.01
 1982 185    21    19    3.8    0.0    3.8   0.00   3.28    3.1    3.4    0.4    3.3   3.28   1.41    0.00    0.01
 1982 186    22    20    4.5    0.0    4.5   0.00   3.19    4.0    4.1    0.4    3.2   3.19   1.41    0.00    0.01
 1982 187    23    21    5.5    0.0    5.5   0.00   3.39    5.2    5.1    0.4    3.4   3.39   1.49    0.00    0.02
 1982 188    24    22    6.3    0.0    6.3   0.00   3.23    6.0    5.9    0.4    3.2   3.23   1.29    0.00    0.02
 1982 189    25    23    7.5    0.0    7.5   0.00   3.17    7.5    7.1    0.4    3.2   3.17   1.39    0.00    0.03
 1982 190    26    24   11.2    0.0   11.2   0.00   4.05   11.2   10.7    0.5    4.1   4.05   1.28    0.00    0.04
 1982 191    27    25   12.6    0.0   12.6   0.00   3.96   12.8   12.1    0.5    4.0   3.96   1.28    0.00    0.04
 1982 192    28    26   14.6    0.0   14.6   0.00   3.88   15.4   14.2    0.5    3.9   3.88   1.44    0.00    0.05
 1982 193    29    27   16.0    0.0   16.0   0.00   3.74   17.1   15.6    0.5    3.7   3.74   1.39    0.00    0.06
 1982 194    30    28   17.7    0.0   17.7   0.00   3.67   19.0   17.2    0.5    3.7   3.67   1.33    0.00    0.07
 1982 195    31    29   19.7    0.0   19.7   0.00   3.63   21.1   19.1    0.6    3.6   3.63   1.24    0.00    0.08
 1982 196    32    30   21.1    0.0   21.1   0.00   3.55   23.3   20.4    0.7    3.6   3.55   1.35    0.00    0.10
 1982 197    33    31   23.3    0.0   23.3   0.00   3.53   25.7   22.4    0.8    3.5   3.53   1.30    0.00    0.11
 1982 198    34    32   26.4    0.0   26.4   0.00   3.52   28.8   25.3    1.1    3.5   3.52   1.19    0.00    0.13
 1982 199    35    33   28.6    0.0   28.6   0.00   3.45   30.9   27.1    1.4    3.4   3.45   1.14    0.00    0.15
 1982 200    36    34   29.7    0.0   29.7   0.00   3.40   32.5   28.1    1.6    3.4   3.40   1.20    0.00    0.17
 1982 201    37    35   30.5    0.0   30.5   0.00   3.39   33.6   28.7    1.8    3.4   3.39   1.25    0.00    0.19
 1982 202    38    36   32.2    0.0   32.2   0.00   3.48   35.7   30.2    2.0    3.5   3.48   1.33    0.00    0.21
 1982 203    39    37   32.2    0.0   32.2   0.00   3.23   35.7   29.9    2.3    3.2   3.23   1.32    0.00    0.21
 1982 204    40    38   36.4    0.0   36.4   0.00   3.28   39.9   33.2    3.3    3.3   3.28   1.21    0.00    0.23
 1982 205    41    39   39.9    0.0   39.9   0.00   3.24   43.6   35.7    4.3    3.2   3.24   1.18    0.00    0.25
 1982 206    42    40   43.6    0.0   43.6   0.00   3.20   47.1   38.2    5.4    3.2   3.20   1.11    0.00    0.28
 1982 207    43    41   47.5    0.0   47.5   0.00   3.16   51.5   40.7    6.8    3.2   3.16   1.17    0.00    0.30
 1982 208    44    42   51.8    0.0   51.8   0.00   3.12   56.0   43.4    8.4    3.1   3.12   1.17    0.00    0.33
 1982 209    45    43   54.5    0.0   54.5   0.00   3.00   59.0   44.7    9.8    3.0   3.00   1.15    0.00    0.35
 1982 210    46    44   55.8    0.0   55.8   0.00   2.81   60.3   44.7   11.1    2.8   2.81   1.11    0.00    0.38
 1982 211    47    45   56.5    0.0   56.5   0.00   2.64   61.1   44.3   12.2    2.6   2.64   1.10    0.00    0.41
 1982 212    48    46   57.1    0.0   57.1   0.00   2.46   61.8   43.8   13.3    2.5   2.46   1.08    0.00    0.43
 1982 213    49    47   57.7    0.0   57.7   0.00   2.33   62.3   43.4   14.3    2.3   2.33   1.07    0.00    0.46
 1982 214    50    48   58.2    0.0   58.2   0.00   2.24   62.9   43.1   15.1    2.2   2.24   1.06    0.00    0.49
 1982 215    51    49   58.7    0.0   58.7   0.00   2.12   63.4   42.6   16.1    2.1   2.12   1.01    0.00    0.52
 1982 216    52    50   59.2    0.0   59.2   0.00   1.98   64.0   43.3   15.9    2.0   1.98   1.00    0.00    0.54
 1982 217    53    51   59.8    0.0   59.8   0.00   1.88   64.6   42.9   16.8    1.9   1.88   0.98    0.00    0.57
 1982 218    54    52   60.4    0.0   60.4   0.00   1.80   65.2   42.5   17.9    1.8   1.80   0.97    0.00    0.60
 1982 219    55    53   60.9    0.0   60.9   0.00   1.74   65.8   42.1   18.9    1.7   1.74   0.96    0.00    0.63
 1982 220    56    54   61.5    0.0   61.5   0.00   1.69   66.5   41.8   19.8    1.7   1.69   0.95    0.00    0.66
 1982 221    57    55   62.1    0.0   62.1   0.00   1.64   67.0   41.4   20.6    1.6   1.64   0.94    0.00    0.68
 1982 222    58    56   62.5    0.0   62.5   0.00   1.60   67.5   41.1   21.4    1.6   1.60   0.91    0.00    0.71
 1982 223    59    57   62.9    0.0   62.9   0.00   1.56   67.9   40.7   22.2    1.6   1.56   0.87    0.00    0.74
 1982 224    60    58   63.4    0.0   63.4   0.00   1.53   68.5   40.5   22.9    1.5   1.53   0.85    0.00    0.77
 1982 225    61    59   63.8    0.0   63.8   0.00   1.50   68.9   40.3   23.5    1.5   1.50   0.82    0.00    0.80
 1982 226    62    60   64.1    0.0   64.1   0.00   1.48   69.2   40.1   24.0    1.5   1.48   0.82    0.00    0.82
 1982 227    63    61   64.5    0.0   64.5   0.00   1.46   69.7   40.0   24.4    1.5   1.46   0.79    0.00    0.85
 1982 228    64    62   64.9    0.0   64.9   0.00   1.44   70.2   40.0   24.9    1.4   1.44   0.77    0.00    0.88
 1982 229    65    63   65.2    0.0   65.2   0.00   1.43   70.5   40.0   25.2    1.4   1.43   0.75    0.00    0.91
 1982 230    66    64   65.6    0.0   65.6   0.00   1.42   71.0   40.2   25.4    1.4   1.42   0.72    0.00    0.94
 1982 231    67    65   65.9    0.0   65.9   0.00   1.41   71.3   40.2   25.7    1.4   1.41   0.72    0.00    0.97
 1982 232    68    66   66.3    0.0   66.3   0.00   1.40   71.8   40.5   25.8    1.4   1.40   0.70    0.00    1.00
 1982 233    69    67   66.7    0.0   66.7   0.00   1.39   72.2   40.5   26.2    1.4   1.39   0.67    0.00    1.02
 1982 234    70    68   67.1    0.0   67.1   0.00   1.37   72.7   40.5   26.6    1.4   1.37   0.65    0.00    1.05
 1982 235    71    69   67.4    0.0   67.4   0.00   1.36   73.1   40.5   26.9    1.4   1.36   0.63    0.00    1.08
 1982 236    72    70   67.8    0.0   67.8   0.00   1.35   73.6   39.7   28.1    1.3   1.35   0.63    0.00    1.11
 1982 237    73    71   68.3    0.0   68.3   0.00   1.34   74.1   39.0   29.3    1.3   1.34   0.64    0.00    1.14
 1982 238    74    72   68.5    0.0   68.5   0.00   1.33   74.4   38.1   30.3    1.3   1.33   0.64    0.00    1.17
 1982 239    75    73   68.8    0.0   68.8   0.00   1.32   74.8   37.4   31.4    1.3   1.32   0.64    0.00    1.20
 1982 240    76    74   69.2    0.0   69.2   0.00   1.31   75.2   36.7   32.6    1.3   1.31   0.64    0.00    1.23
 1982 241    77    75   69.6    0.0   69.6   0.00   1.30   75.7   35.8   33.8    1.3   1.30   0.64    0.00    1.26
 1982 242    78    76   70.0    0.0   70.0   0.00   1.29   76.1   35.0   35.0    1.3   1.29   0.64    0.00    1.29
 1982 243    79    77   70.5    0.0   70.5   0.00   1.28   76.7   34.2   36.2    1.3   1.28   0.64    0.00    1.33
 1982 244    80    78   70.8    0.0   70.8   0.00   1.28   77.0   33.5   37.2    1.3   1.28   0.65    0.00    1.36
 1982 245    81    79   71.2    0.0   71.2   0.00   1.28   77.5   32.8   38.3    1.3   1.28   0.65    0.00    1.39
 1982 246    82    80   71.6    0.0   71.6   0.00   1.28   78.0   32.2   39.4    1.3   1.28   0.65    0.00    1.42
 1982 247    83    81   72.0    0.0   72.0   0.00   1.28   78.5   31.5   40.5    1.3   1.28   0.65    0.00    1.45
 1982 248    84    82   72.4    0.0   72.4   0.00   1.28   78.9   30.8   41.6    1.3   1.28   0.66    0.00    1.48
 1982 249    85    83   72.8    1.0   71.8   1.17   1.27   79.4   30.6   41.2    1.3   1.27   0.65    0.00    1.51
 1982 250    86    84   73.2    1.7   71.4   1.17   1.26   79.9   30.4   41.0    1.3   1.26   0.63    0.00    1.55
 1982 251    87    85   73.6    2.5   71.1   1.17   1.25   80.4   30.3   40.8    1.3   1.25   0.62    0.00    1.58
 1982 252    88    86   73.9    3.3   70.7   1.17   1.25   80.9   30.1   40.6    1.2   1.25   0.61    0.00    1.61
 1982 253    89    87   74.3    4.1   70.3   1.17   1.24   81.3   29.9   40.3    1.2   1.24   0.60    0.00    1.64
 1982 254    90    88   74.6    4.8   69.8   1.18   1.23   81.7   29.7   40.1    1.2   1.23   0.59    0.00    1.68
 1982 255    91    89   74.9    5.6   69.3   1.18   1.22   82.1   29.5   39.8    1.2   1.22   0.59    0.00    1.71
 1982 256    92    90   75.3    6.4   68.9   1.18   1.21   82.6   29.3   39.6    1.2   1.21   0.59    0.00    1.75
 1982 257    93    91   75.6    7.2   68.4   1.18   1.21   83.0   29.1   39.3    1.2   1.21   0.59    0.00    1.78
 1982 258    94    92   75.9    8.0   67.9   1.19   1.20   83.4   28.9   39.0    1.2   1.20   0.59    0.00    1.81
 1982 259    95    93   76.2    8.8   67.4   1.19   1.19   83.8   28.7   38.7    1.2   1.19   0.59    0.00    1.85
 1982 260    96    94   76.5    9.6   66.9   1.19   1.18   84.3   28.5   38.4    1.2   1.18   0.58    0.00    1.89
 1982 261    97    95   76.9   10.4   66.5   1.19   1.17   84.7   28.3   38.2    1.2   1.17   0.58    0.00    1.92
 1982 262    98    96   77.2   11.2   66.0   1.20   1.16   85.2   28.1   37.9    1.2   1.16   0.58    0.00    1.96
 1982 263    99    97   77.6   12.0   65.5   1.20   1.16   85.7   27.9   37.6    1.2   1.16   0.58    0.00    1.99
 1982 264   100    98   77.9   12.8   65.0   1.20   1.15   86.1   27.7   37.3    1.1   1.15   0.58    0.00    2.03
 1982 265   101    99   78.2   13.7   64.5   1.20   1.14   86.6   27.5   37.1    1.1   1.14   0.58    0.00    2.07
 1982 266   102   100   78.5   14.5   64.0   1.21   1.13   87.0   27.2   36.8    1.1   1.13   0.58    0.00    2.11
 1982 267   103   101   78.7   15.3   63.4   1.21   1.12   87.4   27.0   36.4    1.1   1.12   0.57    0.00    2.15
 1982 268   104   102   79.0   16.1   62.8   1.21   1.11   87.7   26.8   36.1    1.1   1.11   0.57    0.00    2.18
 1982 269   105   103   79.2   17.0   62.2   1.21   1.10   88.1   26.5   35.7    1.1   1.10   0.57    0.00    2.22
 1982 270   106   104   79.4   17.8   61.6   1.22   1.09   88.4   26.2   35.4    1.1   1.09   0.57    0.00    2.26
 1982 271   107   105   79.6   18.6   61.0   1.22   1.07   88.7   26.0   35.0    1.1   1.07   0.57    0.00    2.30
 1982 272   108   106   79.8   19.5   60.3   1.22   1.06   89.0   25.7   34.6    1.1   1.06   0.57    0.00    2.35
 1982 273   109   107   80.0   20.3   59.7   1.22   1.05   89.3   25.4   34.3    1.1   1.05   0.57    0.00    2.39
 1982 274   110   108   80.1   21.2   59.0   1.22   1.04   89.6   25.1   33.9    1.0   1.04   0.57    0.00    2.43
 1982 275   111   109   80.3   22.0   58.3   1.23   1.03   89.8   24.8   33.5    1.0   1.03   0.57    0.00    2.47
 1982 276   112   110   80.4   22.8   57.6   1.23   1.01   90.1   24.5   33.1    1.0   1.01   0.57    0.00    2.51
 1982 277   113   111   80.5   23.7   56.8   1.23   1.00   90.3   24.2   32.6    1.0   1.00   0.56    0.00    2.55