*EXP.DETAILS: ETME0000MZ MELKSSAL                                                                                                                                                                       
                                                                                                                                                                                                        
*GENERAL                                                                                                                                                                                                
@PEOPLE                                                                                                                                                                                                 
-99                                                                                                                                                                                                     
@ADDRESS                                                                                                                                                                                                
-99                                                                                                                                                                                                     
@SITE                                                                                                                                                                                                   
-99                                                                                                                                                                                                     
@ PAREA  PRNO  PLEN  PLDR  PLSP  PLAY HAREA  HRNO  HLEN  HARM.........                                                                                                                                  
    -99   -99   -99   -99   -99   -99   -99   -99   -99   -99                                                                                                                                           
                                                                                                                                                                                                        
*TREATMENTS                        -------------FACTOR LEVELS------------                                                                                                                               
@N R O C TNAME.................... CU FL SA IC MP MI MF MR MC MT ME MH SM                                                                                                                               
 1 1 1 0 MAHONI-default fert        1  1  0  1  1  0  1  0  0  0  0  0  1
 
*CULTIVARS                                                                                                                                                                                              
@C CR INGENO CNAME                                                                                                                                                                                      
 1 MZ CIMT02 MELKASA-early
 
*FIELDS                                                                                                                                                                                                 
@L ID_FIELD WSTA....  FLSA  FLOB  FLDT  FLDD  FLDS  FLST SLTX  SLDP  ID_SOIL    FLNAME                                                                                                                  
 1 MELKASSA MELK       -99   -99   -99   -99   -99   -99 SIL    200  ET00991_66 -99
@L ...........XCRD ...........YCRD .....ELEV .............AREA .SLEN .FLWR .SLAS FLHST FHDUR                                                                                                            
 1             -99             -99       -99               -99   -99   -99   -99   -99   -99                                                                                                            
 
*INITIAL CONDITIONS                                                                                                                                                                                     
@C   PCR ICDAT  ICRT  ICND  ICRN  ICRE  ICWD ICRES ICREN ICREP ICRIP ICRID ICNAME                                                                                                                       
 1    MZ 81161   -99   -99     1     1   -99   -99  -9.9   -99   -99   -99   -99
@C  ICBL  SH2O  SNH4  SNO3                                                                                                                                                                              
 1     0  .341    .1    .1
 1     5  .341    .1    .1
 1    15  .340    .1    .1
 1    30  .329    .1    .1
 1    60  .329    .1    .1
 1   100  .329    .1    .1
 1   200  .326    .1    .1                                                                                                                                                                            
 
*PLANTING DETAILS                                                                                                                                                                                       
@P PDATE EDATE  PPOP  PPOE  PLME  PLDS  PLRS  PLRD  PLDP  PLWT  PAGE  PENV  PLPH  SPRL                        PLNAME                                                                                    
 1 81177   -99   6.6   6.6     S     R    75   -99   2.5   -99   -99   -99   -99   -99                        -99

*FERTILIZERS (INORGANIC)                                                                                                                                                                                
@F FDATE  FMCD  FACD  FDEP  FAMN  FAMP  FAMK  FAMC  FAMO  FOCD FERNAME                                                                                                                                  
 1     0 FE005 AP002     5    30   -99   -99   -99   -99   -99   -99
 1    45 FE005 AP002     5    30   -99   -99   -99   -99   -99   -99
 
*SIMULATION CONTROLS                                                                                                                                                                                    
@N GENERAL     NYERS NREPS START SDATE RSEED SNAME.................... SMODEL                                                                                                                           
 1 GE              1     1     S 81176  2150 15102000                  MZCER 
@N OPTIONS     WATER NITRO SYMBI PHOSP POTAS DISES  CHEM  TILL   CO2                                                                                                                                    
 1 OP              Y     Y     Y     N     N     N     N     N     D                                                                                                                                    
@N METHODS     WTHER INCON LIGHT EVAPO INFIL PHOTO HYDRO NSWIT MESOM MESEV MESOL                                                                                                                        
 1 ME              M     M     E     R     S     C     R     1     G     S     2                                                                                                                        
@N MANAGEMENT  PLANT IRRIG FERTI RESID HARVS                                                                                                                                                            
 1 MA              R     N     D     N     M                                                                                                                                                            
@N OUTPUTS     FNAME OVVEW SUMRY FROPT GROUT CAOUT WAOUT NIOUT MIOUT DIOUT VBOSE CHOUT OPOUT FMOPT                                                                                                      
 1 OU              N     Y     Y     1     Y     Y     Y     Y     N     N     Y     N     Y     A                                                                                                      
 
@  AUTOMATIC MANAGEMENT                                                                                                                                                                                 
@N PLANTING    PFRST PLAST PH2OL PH2OU PH2OD PSTMX PSTMN                                                                                                                                                
 1 PL          84001 84059    50   100    30    40    10                                                                                                                                                
@N IRRIGATION  IMDEP ITHRL ITHRU IROFF IMETH IRAMT IREFF                                                                                                                                                
 1 IR             30    50   100 GS000 IR001    10    .8                                                                                                                                                
@N NITROGEN    NMDEP NMTHR NAMNT NCODE NAOFF                                                                                                                                                            
 1 NI             30    50    25 FE001 GS000                                                                                                                                                            
@N RESIDUES    RIPCN RTIME RIDEP                                                                                                                                                                        
 1 RE            100     1    20                                                                                                                                                                        
@N HARVEST     HFRST HLAST HPCNP HPCNR                                                                                                                                                                  
 1 HA              0 00289   100     0                                                                                                                                                                  
