*N2O emissions output file

*DSSAT Cropping System Model Ver. 4.7.5.008 -release  MAY 04, 2021 17:13:26

*RUN   1        : ET-SIMAGRI                MZCER047 ETMZcccc    1
 MODEL          : MZCER047 - Maize
 EXPERIMENT     : ETMZcccc SN MELKSSAL
 DATA PATH      : C:\IRI\Python_Dash\ET_DSS_hist\TEST\
 TREATMENT  1   : ET-SIMAGRI                MZCER047
  
!              |---------------------------------- Cumulative ---------------------------------|---------------------------------- Daily --------------------------------------|
!               N2Oemit  N2emit  NOemit     CO2   Denit  Nitrif   N2O-denit+nit      N2      NO N2Oemit  N2emit  NOemit     CO2   Denit  Nitrif   N2O-denit+nit      N2      NO   Denitrification (g[N]/ha) by soil depth (cm):                                   Nitrification (g[N]/ha) by soil depth (cm):                                     N2O flux (g[N]/ha) by soil depth (cm):                                          N2 flux (g[N]/ha) by soil depth (cm):                                           NO flux (g[N]/ha) by soil depth (cm):
!                 kg/ha   kg/ha   kg/ha   kg/ha   kg/ha   kg/ha   kg/ha   kg/ha   kg/ha   kg/ha    g/ha    g/ha    g/ha    g/ha    g/ha    g/ha    g/ha    g/ha    g/ha    g/ha     0-5    5-15   15-20   20-35   35-50   50-65   65-81   81-97  97-118 118-200     0-5    5-15   15-20   20-35   35-50   50-65   65-81   81-97  97-118 118-200     0-5    5-15   15-20   20-35   35-50   50-65   65-81   81-97  97-118 118-200     0-5    5-15   15-20   20-35   35-50   50-65   65-81   81-97  97-118 118-200     0-5    5-15   15-20   20-35   35-50   50-65   65-81   81-97  97-118 118-200
@YEAR DOY   DAS   N2OEC    N2EC    NOEC   CO2TC    NDNC    NITC   N2ODC   N2ONC   N2FLC   NOFLC   N2OED    N2ED    NOED   CO2TD    NDND   NITRD   N2ODD   N2OND   N2FLD   NOFLD   NDN1D   NDN2D   NDN3D   NDN4D   NDN5D   NDN6D   NDN7D   NDN8D   NDN9D   NDN10   NIT1D   NIT2D   NIT3D   NIT4D   NIT5D   NIT6D   NIT7D   NIT8D   NIT9D   NIT10   N2O1D   N2O2D   N2O3D   N2O4D   N2O5D   N2O6D   N2O7D   N2O8D   N2O9D   N2O10   N2F1D   N2F2D   N2F3D   N2F4D   N2F5D   N2F6D   N2F7D   N2F8D   N2F9D   N2F10   NOF1D   NOF2D   NOF3D   NOF4D   NOF5D   NOF6D   NOF7D   NOF8D   NOF9D   NOF10
 1981 165     1    0.00    0.00    0.00      16    0.00     1.3   0.000   0.001   0.000   0.004     0.0     0.0     0.1   15742     0.0    1318    0.00    1.32    0.00    3.98     0.0     0.0     0.0     0.0     0.0     0.0     0.0     0.0     0.0     0.0     40.     78.     38.    112.     99.     96.     90.     88.    142.    144.     0.0     0.1     0.0     0.1     0.1     0.1     0.1     0.1     0.1     0.1     0.0     0.0     0.0     0.0     0.0     0.0     0.0     0.0     0.0     0.0     0.2     0.4     0.2     0.5     0.4     0.4     0.5     0.5     0.2     0.2
 1981 166     2    0.00    0.00    0.00      31    0.00     2.5   0.000   0.003   0.000   0.008     0.0     0.0     0.1   15681     0.0    1210    0.00    1.21    0.00    3.89     0.0     0.0     0.0     0.0     0.0     0.0     0.0     0.0     0.0     0.0     49.     96.     47.    118.     99.     97.     81.     79.    114.    117.     0.0     0.1     0.0     0.1     0.1     0.1     0.1     0.1     0.1     0.1     0.0     0.0     0.0     0.0     0.0     0.0     0.0     0.0     0.0     0.0     0.2     0.5     0.2     0.5     0.4     0.4     0.5     0.5     0.2     0.2
 1981 167     3    0.00    0.00    0.01      47    0.00     9.5   0.000   0.010   0.000   0.040     1.2     0.0     5.8   15539     0.0    7005    0.00    7.00    0.00   32.17     0.0     0.0     0.0     0.0     0.0     0.0     0.0     0.0     0.0     0.0   5916.    100.     49.    119.     98.     96.     76.     75.    100.    103.     5.9     0.1     0.0     0.1     0.1     0.1     0.1     0.1     0.1     0.1     0.0     0.0     0.0     0.0     0.0     0.0     0.0     0.0     0.0     0.0    28.6     0.5     0.2     0.5     0.4     0.4     0.5     0.4     0.2     0.2
 1981 168     4    0.00    0.00    0.01      63    0.00    12.6   0.000   0.013   0.000   0.053     1.4     0.0     6.8   15644     0.0    3043    0.00    3.04    0.00   13.31     0.0     0.0     0.0     0.0     0.0     0.0     0.0     0.0     0.0     0.0   1970.    104.     51.    122.    100.     98.     76.     74.     95.     98.     2.0     0.1     0.1     0.1     0.1     0.1     0.1     0.1     0.1     0.1     0.0     0.0     0.0     0.0     0.0     0.0     0.0     0.0     0.0     0.0     9.8     0.5     0.2     0.6     0.4     0.4     0.5     0.4     0.2     0.2
 1981 169     5    0.00    0.00    0.02      78    0.00    14.4   0.000   0.014   0.000   0.061     1.3     0.0     6.3   15562     0.0    1779    0.00    1.78    0.00    7.22     0.0     0.0     0.0     0.0     0.0     0.0     0.0     0.0     0.0     0.0    732.    104.     51.    121.     99.     97.     74.     73.     92.     94.     0.7     0.1     0.1     0.1     0.1     0.1     0.1     0.1     0.1     0.1     0.0     0.0     0.0     0.0     0.0     0.0     0.0     0.0     0.0     0.0     3.7     0.5     0.2     0.5     0.4     0.4     0.4     0.4     0.2     0.2
 1981 170     6    0.01    0.00    0.02      94    0.00    15.7   0.000   0.016   0.000   0.066     1.1     0.0     5.5   15780     0.0    1360    0.00    1.36    0.00    5.12     0.0     0.0     0.0     0.0     0.0     0.0     0.0     0.0     0.0     0.0    296.    107.     53.    124.    102.     99.     76.     74.     92.     95.     0.3     0.1     0.1     0.1     0.1     0.1     0.1     0.1     0.1     0.1     0.0     0.0     0.0     0.0     0.0     0.0     0.0     0.0     0.0     0.0     1.6     0.5     0.3     0.6     0.4     0.4     0.5     0.4     0.2     0.2
 1981 171     7    0.01    0.00    0.03     110    0.00    16.9   0.000   0.017   0.000   0.070     1.0     0.0     4.8   15767     0.0    1220    0.00    1.22    0.00    4.44     0.0     0.0     0.0     0.0     0.0     0.0     0.0     0.0     0.0     0.0    166.    106.     53.    123.    101.     99.     75.     74.     91.     93.     0.2     0.1     0.1     0.1     0.1     0.1     0.1     0.1     0.1     0.1     0.0     0.0     0.0     0.0     0.0     0.0     0.0     0.0     0.0     0.0     0.9     0.5     0.2     0.6     0.4     0.4     0.5     0.4     0.2     0.2
 1981 172     8    0.01    0.00    0.03     125    0.00    18.1   0.000   0.018   0.000   0.074     0.8     0.0     4.1   15719     0.0    1138    0.00    1.14    0.00    4.03     0.0     0.0     0.0     0.0     0.0     0.0     0.0     0.0     0.0     0.0     93.    106.     52.    122.    100.     98.     75.     73.     91.     93.     0.1     0.1     0.1     0.1     0.1     0.1     0.1     0.1     0.1     0.1     0.0     0.0     0.0     0.0     0.0     0.0     0.0     0.0     0.0     0.0     0.5     0.5     0.2     0.6     0.4     0.4     0.4     0.4     0.1     0.2
 1981 173     9    0.01    0.00    0.04     141    0.00    19.1   0.000   0.019   0.000   0.078     0.7     0.0     3.6   15366     0.0    1066    0.00    1.07    0.00    3.72     0.0     0.0     0.0     0.0     0.0     0.0     0.0     0.0     0.0     0.0     58.    101.     50.    117.     96.     95.     72.     71.     88.     90.     0.1     0.1     0.1     0.1     0.1     0.1     0.1     0.1     0.1     0.1     0.0     0.0     0.0     0.0     0.0     0.0     0.0     0.0     0.0     0.0     0.3     0.5     0.2     0.5     0.4     0.4     0.4     0.4     0.1     0.1
 1981 174    10    0.01    0.00    0.04     156    0.00    20.2   0.000   0.020   0.000   0.082     0.6     0.0     3.1   15419     0.0    1064    0.00    1.06    0.00    3.69     0.0     0.0     0.0     0.0     0.0     0.0     0.0     0.0     0.0     0.0     44.    103.     51.    119.     98.     96.     73.     72.     88.     91.     0.0     0.1     0.1     0.1     0.1     0.1     0.1     0.1     0.1     0.1     0.0     0.0     0.0     0.0     0.0     0.0     0.0     0.0     0.0     0.0     0.3     0.5     0.2     0.5     0.4     0.4     0.4     0.4     0.1     0.1
 1981 175    11    0.01    0.00    0.04     172    0.00    21.2   0.000   0.021   0.000   0.095     0.6     0.0     2.9   15298     0.0    1045    0.00    1.04    0.00   13.50     0.0     0.0     0.0     0.0     0.0     0.0     0.0     0.0     0.0     0.0     35.    102.     50.    118.     97.     95.     72.     71.     88.     90.     0.0     0.1     0.1     0.1     0.1     0.1     0.1     0.1     0.1     0.1     0.0     0.0     0.0     0.0     0.0     0.0     0.0     0.0     0.0     0.0     0.8     1.8     0.9     2.0     1.4     1.3     1.6     1.6     0.5     0.6
 1981 176    12    0.01    0.00    0.05     187    0.00    22.3   0.000   0.022   0.000   0.106     0.5     0.0     2.5   15214     0.0    1047    0.00    1.05    0.00   10.89     0.0     0.0     0.0     0.0     0.0     0.0     0.0     0.0     0.0     0.0     42.    101.     50.    117.     96.     94.     72.     71.     87.     89.     0.0     0.1     0.0     0.1     0.1     0.1     0.1     0.1     0.1     0.1     0.0     0.0     0.0     0.0     0.0     0.0     0.0     0.0     0.0     0.0     0.6     1.5     0.7     1.6     1.1     1.1     1.3     1.3     0.4     0.4
 1981 177    13    0.01    0.00    0.05     202    0.00    23.4   0.000   0.023   0.000   0.115     0.4     0.0     2.5   15417     0.0    1065    0.00    1.06    0.00    8.99     0.0     0.0     0.0     0.0     0.0     0.0     0.0     0.0     0.0     0.0     37.    104.     51.    121.     99.     97.     74.     72.     89.     91.     0.0     0.1     0.1     0.1     0.1     0.1     0.1     0.1     0.1     0.1     0.0     0.0     0.0     0.0     0.0     0.0     0.0     0.0     0.0     0.0     0.4     1.2     0.6     1.4     0.9     0.9     1.1     1.1     0.4     0.4
 1981 178    14    0.01    0.00    0.05     218    0.00    24.4   0.000   0.024   0.000   0.122     0.4     0.0     2.5   15584     0.0    1072    0.00    1.07    0.00    7.34     0.0     0.0     0.0     0.0     0.0     0.0     0.0     0.0     0.0     0.0     29.    106.     52.    122.    100.     98.     75.     73.     90.     92.     0.0     0.1     0.1     0.1     0.1     0.1     0.1     0.1     0.1     0.1     0.0     0.0     0.0     0.0     0.0     0.0     0.0     0.0     0.0     0.0     0.3     1.0     0.5     1.1     0.8     0.7     0.9     0.9     0.3     0.3
 1981 179    15    0.01    0.00    0.05     233    0.00    25.5   0.000   0.025   0.000   0.128     0.4     0.0     2.5   15184     0.0    1025    0.00    1.03    0.00    5.68     0.0     0.0     0.0     0.0     0.0     0.0     0.0     0.0     0.0     0.0     27.    100.     49.    116.     95.     94.     71.     70.     87.     89.     0.0     0.1     0.0     0.1     0.1     0.1     0.1     0.1     0.1     0.1     0.0     0.0     0.0     0.0     0.0     0.0     0.0     0.0     0.0     0.0     0.2     0.8     0.4     0.9     0.6     0.6     0.7     0.7     0.2     0.2
 1981 180    16    0.01    0.00    0.06     248    0.00    26.5   0.000   0.026   0.000   0.132     0.4     0.0     2.5   14604     0.0    1003    0.00    1.00    0.00    4.51     0.0     0.0     0.0     0.0     0.0     0.0     0.0     0.0     0.0     0.0     26.     97.     48.    113.     93.     91.     70.     69.     85.     87.     0.0     0.1     0.0     0.1     0.1     0.1     0.1     0.1     0.1     0.1     0.0     0.0     0.0     0.0     0.0     0.0     0.0     0.0     0.0     0.0     0.2     0.6     0.3     0.7     0.5     0.5     0.6     0.5     0.2     0.2
 1981 181    17    0.01    0.00    0.06     262    0.00    27.5   0.000   0.027   0.000   0.136     0.4     0.0     2.5   14814     0.0    1008    0.00    1.01    0.00    3.66     0.0     0.0     0.0     0.0     0.0     0.0     0.0     0.0     0.0     0.0     22.     91.     46.    116.     95.     94.     71.     70.     87.     89.     0.0     0.1     0.0     0.1     0.1     0.1     0.1     0.1     0.1     0.1     0.0     0.0     0.0     0.0     0.0     0.0     0.0     0.0     0.0     0.0     0.1     0.5     0.2     0.6     0.4     0.4     0.5     0.5     0.2     0.2
 1981 182    18    0.01    0.00    0.06     277    0.00    28.5   0.000   0.028   0.000   0.139     0.4     0.0     2.5   14689     0.0     998    0.00    1.00    0.00    3.36     0.0     0.0     0.0     0.0     0.0     0.0     0.0     0.0     0.0     0.0     27.     86.     43.    115.     94.     93.     71.     70.     86.     88.     0.0     0.1     0.0     0.1     0.1     0.1     0.1     0.1     0.1     0.1     0.0     0.0     0.0     0.0     0.0     0.0     0.0     0.0     0.0     0.0     0.1     0.4     0.2     0.5     0.4     0.4     0.4     0.4     0.1     0.1
 1981 183    19    0.01    0.00    0.06     291    0.00    29.4   0.000   0.029   0.000   0.143     0.4     0.0     2.6   14167     0.0     952    0.00    0.95    0.00    3.19     0.0     0.0     0.0     0.0     0.0     0.0     0.0     0.0     0.0     0.0     25.     78.     40.    109.     90.     89.     68.     67.     83.     85.     0.0     0.1     0.0     0.1     0.1     0.1     0.1     0.1     0.1     0.1     0.0     0.0     0.0     0.0     0.0     0.0     0.0     0.0     0.0     0.0     0.1     0.4     0.2     0.5     0.3     0.3     0.4     0.4     0.1     0.1
 1981 184    20    0.01    0.00    0.07     305    0.00    30.4   0.000   0.030   0.000   0.146     0.4     0.0     2.6   13937     0.0     951    0.00    0.95    0.00    3.19     0.0     0.0     0.0     0.0     0.0     0.0     0.0     0.0     0.0     0.0     21.     77.     40.    110.     91.     89.     68.     67.     83.     86.     0.0     0.1     0.0     0.1     0.1     0.1     0.1     0.1     0.1     0.1     0.0     0.0     0.0     0.0     0.0     0.0     0.0     0.0     0.0     0.0     0.1     0.4     0.2     0.5     0.3     0.3     0.4     0.4     0.1     0.1
 1981 185    21    0.01    0.00    0.07     319    0.00    31.3   0.000   0.031   0.000   0.149     0.4     0.0     2.6   14090     0.0     945    0.00    0.94    0.00    3.15     0.0     0.0     0.0     0.0     0.0     0.0     0.0     0.0     0.0     0.0     19.     74.     39.    107.     91.     90.     69.     67.     84.     86.     0.0     0.1     0.0     0.1     0.1     0.1     0.1     0.1     0.1     0.1     0.0     0.0     0.0     0.0     0.0     0.0     0.0     0.0     0.0     0.0     0.1     0.4     0.2     0.5     0.3     0.3     0.4     0.4     0.1     0.1
 1981 186    22    0.01    0.00    0.07     333    0.00    32.2   0.000   0.032   0.000   0.152     0.4     0.0     2.4   13946     0.0     929    0.00    0.93    0.00    3.07     0.0     0.0     0.0     0.0     0.0     0.0     0.0     0.0     0.0     0.0     24.     74.     37.    102.     89.     88.     67.     66.     82.     85.     0.0     0.1     0.0     0.1     0.1     0.1     0.1     0.1     0.1     0.1     0.0     0.0     0.0     0.0     0.0     0.0     0.0     0.0     0.0     0.0     0.1     0.3     0.2     0.5     0.3     0.3     0.4     0.4     0.1     0.1
 1981 187    23    0.01    0.00    0.07     347    0.00    33.2   0.000   0.033   0.000   0.155     0.4     0.0     2.7   13609     0.0     914    0.00    0.91    0.00    3.05     0.0     0.0     0.0     0.0     0.0     0.0     0.0     0.0     0.0     0.0     22.     79.     34.     97.     87.     86.     66.     65.     81.     83.     0.0     0.1     0.0     0.1     0.1     0.1     0.1     0.1     0.1     0.1     0.0     0.0     0.0     0.0     0.0     0.0     0.0     0.0     0.0     0.0     0.1     0.4     0.2     0.4     0.3     0.3     0.4     0.4     0.1     0.1
 1981 188    24    0.01    0.00    0.08     361    0.00    34.1   0.000   0.034   0.000   0.158     0.5     0.0     2.8   13871     0.0     950    0.00    0.95    0.00    3.18     0.0     0.0     0.0     0.0     0.0     0.0     0.0     0.0     0.0     0.0     23.     84.     35.    101.     91.     90.     69.     68.     84.     86.     0.0     0.1     0.0     0.1     0.1     0.1     0.1     0.1     0.1     0.1     0.0     0.0     0.0     0.0     0.0     0.0     0.0     0.0     0.0     0.0     0.1     0.4     0.2     0.5     0.3     0.3     0.4     0.4     0.1     0.1
 1981 189    25    0.01    0.00    0.08     375    0.00    35.1   0.000   0.035   0.000   0.162     0.5     0.0     2.9   14107     0.0     984    0.00    0.98    0.00    3.30     0.0     0.0     0.0     0.0     0.0     0.0     0.0     0.0     0.0     0.0     24.     85.     35.    105.     96.     94.     72.     71.     87.     89.     0.0     0.1     0.0     0.1     0.1     0.1     0.1     0.1     0.1     0.1     0.0     0.0     0.0     0.0     0.0     0.0     0.0     0.0     0.0     0.0     0.1     0.4     0.2     0.5     0.4     0.4     0.4     0.4     0.1     0.1
 1981 190    26    0.02    0.00    0.08     389    0.00    36.0   0.000   0.036   0.000   0.165     0.5     0.0     2.9   13883     0.0     958    0.00    0.96    0.00    3.19     0.0     0.0     0.0     0.0     0.0     0.0     0.0     0.0     0.0     0.0     20.     77.     33.    101.     94.     93.     71.     70.     86.     88.     0.0     0.1     0.0     0.1     0.1     0.1     0.1     0.1     0.1     0.1     0.0     0.0     0.0     0.0     0.0     0.0     0.0     0.0     0.0     0.0     0.1     0.4     0.2     0.5     0.4     0.3     0.4     0.4     0.1     0.1
 1981 191    27    0.02    0.00    0.09     402    0.00    37.0   0.000   0.037   0.000   0.168     0.5     0.0     3.0   13436     0.0     913    0.00    0.91    0.00    3.03     0.0     0.0     0.0     0.0     0.0     0.0     0.0     0.0     0.0     0.0     17.     67.     31.     95.     90.     89.     68.     67.     83.     86.     0.0     0.1     0.0     0.1     0.1     0.1     0.1     0.1     0.1     0.1     0.0     0.0     0.0     0.0     0.0     0.0     0.0     0.0     0.0     0.0     0.1     0.3     0.1     0.4     0.3     0.3     0.4     0.4     0.1     0.1
 1981 192    28    0.02    0.00    0.09     416    0.00    37.8   0.000   0.038   0.000   0.171     0.3     0.0     1.9   13627     0.0     881    0.00    0.88    0.00    2.85     0.0     0.0     0.0     0.0     0.0     0.0     0.0     0.0     0.0     0.0     12.     61.     29.     90.     88.     87.     67.     66.     82.     84.     0.0     0.1     0.0     0.1     0.1     0.1     0.1     0.1     0.1     0.1     0.0     0.0     0.0     0.0     0.0     0.0     0.0     0.0     0.0     0.0     0.0     0.3     0.1     0.4     0.3     0.3     0.4     0.4     0.1     0.1
 1981 193    29    0.02    0.00    0.09     429    0.00    38.7   0.000   0.039   0.000   0.173     0.2     0.0     1.4   13594     0.0     863    0.00    0.86    0.00    2.57     0.0     0.0     0.0     0.0     0.0     0.0     0.0     0.0     0.0     0.0     16.     65.     26.     85.     85.     84.     65.     64.     79.     82.     0.0     0.1     0.0     0.1     0.1     0.1     0.1     0.1     0.1     0.1     0.0     0.0     0.0     0.0     0.0     0.0     0.0     0.0     0.0     0.0     0.0     0.2     0.1     0.4     0.3     0.3     0.4     0.4     0.1     0.1
 1981 194    30    0.02    0.00    0.09     443    0.00    39.5   0.000   0.040   0.000   0.175     0.2     0.0     1.4   13352     0.0     802    0.00    0.80    0.00    2.07     0.0     0.0     0.0     0.0     0.0     0.0     0.0     0.0     0.0     0.0     16.     54.     23.     77.     68.     80.     62.     61.     76.     79.     0.0     0.1     0.0     0.1     0.1     0.1     0.1     0.1     0.1     0.1     0.0     0.0     0.0     0.0     0.0     0.0     0.0     0.0     0.0     0.0     0.0     0.0     0.0     0.2     0.2     0.3     0.4     0.4     0.1     0.1
 1981 195    31    0.02    0.00    0.09     456    0.00    40.4   0.000   0.040   0.000   0.178     0.6     0.0     3.1   13384     0.0     892    0.00    0.89    0.00    2.77     0.0     0.0     0.0     0.0     0.0     0.0     0.0     0.0     0.0     0.0     24.     92.     41.     91.     75.     81.     63.     62.     77.     80.     0.0     0.1     0.0     0.1     0.1     0.1     0.1     0.1     0.1     0.1     0.0     0.0     0.0     0.0     0.0     0.0     0.0     0.0     0.0     0.0     0.1     0.3     0.1     0.4     0.3     0.3     0.4     0.4     0.1     0.1
 1981 196    32    0.02    0.00    0.10     470    0.00    41.3   0.000   0.041   0.000   0.181     0.6     0.0     3.3   13643     0.0     936    0.00    0.94    0.00    3.14     0.0     0.0     0.0     0.0     0.0     0.0     0.0     0.0     0.0     0.0     20.     92.     45.     99.     95.     84.     65.     64.     79.     82.     0.0     0.1     0.0     0.1     0.1     0.1     0.1     0.1     0.1     0.1     0.0     0.0     0.0     0.0     0.0     0.0     0.0     0.0     0.0     0.0     0.1     0.4     0.2     0.4     0.4     0.3     0.4     0.4     0.1     0.1
 1981 197    33    0.02    0.00    0.10     483    0.00    42.3   0.000   0.042   0.000   0.184     0.6     0.0     3.3   13804     0.0     948    0.00    0.95    0.00    3.19     0.0     0.0     0.0     0.0     0.0     0.0     0.0     0.0     0.0     0.0     21.     92.     45.    103.     92.     86.     66.     65.     81.     83.     0.0     0.1     0.0     0.1     0.1     0.1     0.1     0.1     0.1     0.1     0.0     0.0     0.0     0.0     0.0     0.0     0.0     0.0     0.0     0.0     0.1     0.4     0.2     0.5     0.3     0.3     0.4     0.4     0.1     0.1
 1981 198    34    0.02    0.00    0.10     497    0.00    43.2   0.000   0.043   0.000   0.188     0.6     0.0     3.3   13826     0.0     959    0.00    0.96    0.00    3.23     0.0     0.0     0.0     0.0     0.0     0.0     0.0     0.0     0.0     0.0     21.     93.     46.    106.     91.     87.     67.     66.     82.     84.     0.0     0.1     0.0     0.1     0.1     0.1     0.1     0.1     0.1     0.1     0.0     0.0     0.0     0.0     0.0     0.0     0.0     0.0     0.0     0.0     0.1     0.4     0.2     0.5     0.3     0.3     0.4     0.4     0.1     0.1
 1981 199    35    0.02    0.00    0.11     511    0.00    44.2   0.000   0.044   0.000   0.191     0.5     0.0     2.4   14027     0.0     955    0.00    0.95    0.00    3.15     0.0     0.0     0.0     0.0     0.0     0.0     0.0     0.0     0.0     0.0     17.     89.     46.    107.     90.     88.     67.     66.     82.     85.     0.0     0.1     0.0     0.1     0.1     0.1     0.1     0.1     0.1     0.1     0.0     0.0     0.0     0.0     0.0     0.0     0.0     0.0     0.0     0.0     0.0     0.4     0.2     0.5     0.3     0.3     0.4     0.4     0.1     0.1
 1981 200    36    0.02    0.00    0.11     525    0.00    45.1   0.000   0.045   0.000   0.194     0.3     0.0     1.6   13892     0.0     933    0.00    0.93    0.00    2.95     0.0     0.0     0.0     0.0     0.0     0.0     0.0     0.0     0.0     0.0     16.     88.     42.    105.     87.     86.     66.     65.     81.     83.     0.0     0.1     0.0     0.1     0.1     0.1     0.1     0.1     0.1     0.1     0.0     0.0     0.0     0.0     0.0     0.0     0.0     0.0     0.0     0.0     0.0     0.3     0.2     0.5     0.3     0.3     0.4     0.4     0.1     0.1
 1981 201    37    0.02    0.00    0.11     539    0.00    46.1   0.000   0.046   0.000   0.197     0.7     0.0     3.4   13738     0.0     930    0.00    0.93    0.00    3.09     0.0     0.0     0.0     0.0     0.0     0.0     0.0     0.0     0.0     0.0     25.     87.     43.    103.     86.     84.     65.     64.     80.     82.     0.0     0.1     0.0     0.1     0.1     0.1     0.1     0.1     0.1     0.1     0.0     0.0     0.0     0.0     0.0     0.0     0.0     0.0     0.0     0.0     0.1     0.4     0.2     0.5     0.3     0.3     0.4     0.4     0.1     0.1
 1981 202    38    0.02    0.00    0.11     553    0.00    47.0   0.000   0.047   0.000   0.200     0.3     0.0     1.7   13608     0.0     911    0.00    0.91    0.00    2.93     0.0     0.0     0.0     0.0     0.0     0.0     0.0     0.0     0.0     0.0     14.     87.     43.    102.     84.     83.     64.     63.     79.     82.     0.0     0.1     0.0     0.1     0.1     0.1     0.1     0.1     0.1     0.1     0.0     0.0     0.0     0.0     0.0     0.0     0.0     0.0     0.0     0.0     0.0     0.4     0.2     0.5     0.3     0.3     0.4     0.4     0.1     0.1
 1981 203    39    0.02    0.00    0.12     566    0.00    47.9   0.000   0.048   0.001   0.203     0.8     0.1     3.7   13570     0.6     921    0.03    0.92    0.58    3.15     0.6     0.0     0.0     0.0     0.0     0.0     0.0     0.0     0.0     0.0     24.     87.     43.    102.     84.     83.     64.     63.     79.     82.     0.1     0.1     0.0     0.1     0.1     0.1     0.1     0.1     0.1     0.1     0.6     0.0     0.0     0.0     0.0     0.0     0.0     0.0     0.0     0.0     0.2     0.4     0.2     0.5     0.3     0.3     0.4     0.4     0.1     0.1
 1981 204    40    0.02    0.00    0.12     580    0.00    48.8   0.000   0.049   0.001   0.206     0.8     0.1     4.0   13431     0.0     907    0.00    0.91    0.00    3.03     0.0     0.0     0.0     0.0     0.0     0.0     0.0     0.0     0.0     0.0     20.     86.     42.    100.     83.     82.     63.     63.     78.     81.     0.0     0.1     0.0     0.1     0.1     0.1     0.1     0.1     0.1     0.1     0.0     0.0     0.0     0.0     0.0     0.0     0.0     0.0     0.0     0.0     0.1     0.4     0.2     0.5     0.3     0.3     0.4     0.4     0.1     0.1
 1981 205    41    0.02    0.00    0.12     593    0.00    49.6   0.000   0.050   0.001   0.208     0.4     0.0     1.7   13380     0.0     849    0.00    0.85    0.00    2.31     0.0     0.0     0.0     0.0     0.0     0.0     0.0     0.0     0.0     0.0     14.     72.     35.    100.     70.     70.     60.     62.     78.     81.     0.0     0.1     0.0     0.1     0.1     0.1     0.1     0.1     0.1     0.1     0.0     0.0     0.0     0.0     0.0     0.0     0.0     0.0     0.0     0.0     0.0     0.1     0.0     0.4     0.2     0.3     0.4     0.4     0.1     0.1
 1981 206    42    0.02    0.00    0.12     606    0.00    50.5   0.000   0.050   0.001   0.210     0.4     0.0     1.7   13465     0.0     839    0.00    0.84    0.00    1.94     0.0     0.0     0.0     0.0     0.0     0.0     0.0     0.0     0.0     0.0     16.     76.     34.     97.     71.     72.     61.     60.     62.     81.     0.0     0.1     0.0     0.1     0.1     0.1     0.1     0.1     0.1     0.1     0.0     0.0     0.0     0.0     0.0     0.0     0.0     0.0     0.0     0.0     0.0     0.1     0.0     0.3     0.2     0.2     0.3     0.3     0.1     0.1
 1981 207    43    0.02    0.00    0.12     620    0.00    51.3   0.000   0.051   0.001   0.212     0.4     0.0     1.6   13499     0.0     835    0.00    0.83    0.00    1.70     0.0     0.0     0.0     0.0     0.0     0.0     0.0     0.0     0.0     0.0     16.     80.     36.     96.     73.     73.     60.     60.     67.     64.     0.0     0.1     0.0     0.1     0.1     0.1     0.1     0.1     0.1     0.1     0.0     0.0     0.0     0.0     0.0     0.0     0.0     0.0     0.0     0.0     0.0     0.1     0.0     0.2     0.1     0.2     0.3     0.3     0.1     0.1
 1981 208    44    0.02    0.00    0.13     633    0.00    52.1   0.000   0.052   0.001   0.213     0.3     0.0     1.5   13091     0.0     788    0.00    0.79    0.00    1.43     0.0     0.0     0.0     0.0     0.0     0.0     0.0     0.0     0.0     0.0     15.     76.     36.     91.     71.     70.     57.     57.     67.     66.     0.0     0.1     0.0     0.1     0.1     0.1     0.1     0.1     0.1     0.1     0.0     0.0     0.0     0.0     0.0     0.0     0.0     0.0     0.0     0.0     0.0     0.1     0.0     0.2     0.1     0.1     0.2     0.3     0.1     0.1
 1981 209    45    0.02    0.00    0.13     646    0.02    52.9   0.002   0.053   0.021   0.218     0.4     0.1     1.7   13093    21.9     814    1.59    0.81   20.26    4.90     0.4     0.6     0.6     0.7     6.9     8.1     4.5     0.0     0.0     0.0     23.     91.     39.     97.     75.     73.     58.     58.     68.     69.     0.0     0.1     0.0     0.1     0.6     0.8     0.4     0.1     0.1     0.1     0.4     0.6     0.6     0.7     6.4     7.4     4.2     0.0     0.0     0.0     0.0     0.2     0.0     0.2     1.0     1.3     1.5     0.2     0.1     0.1
 1981 210    46    0.02    0.00    0.13     659    0.05    53.8   0.003   0.054   0.044   0.224     0.4     0.1     1.8   13018    25.4     847    1.71    0.85   23.65    5.96     0.5     0.4     0.5     0.4     4.8     7.2     4.7     3.8     3.3     0.0     28.     93.     43.    100.     79.     75.     59.     58.     69.     71.     0.0     0.1     0.0     0.1     0.4     0.7     0.4     0.3     0.2     0.1     0.5     0.4     0.5     0.4     4.4     6.6     4.4     3.5     3.1     0.0     0.0     0.2     0.0     0.3     0.8     1.2     1.6     1.2     0.2     0.1
 1981 211    47    0.02    0.00    0.13     672    0.08    54.6   0.005   0.055   0.071   0.230     0.4     0.2     1.6   12760    28.7     815    1.77    0.81   26.93    5.73     0.5     0.9     0.6     0.5     4.3     6.5     4.7     3.9     3.6     3.2     28.     74.     36.     93.     76.     75.     58.     57.     69.     71.     0.0     0.1     0.0     0.1     0.3     0.6     0.4     0.3     0.2     0.2     0.5     0.8     0.6     0.5     4.0     6.0     4.4     3.7     3.5     3.0     0.0     0.1     0.0     0.2     0.7     1.1     1.6     1.3     0.3     0.2
 1981 212    48    0.03    0.00    0.13     685    0.12    55.4   0.008   0.055   0.110   0.236     0.4     0.2     1.6   12680    40.7     787    2.42    0.79   38.33    5.82     0.4     1.2     0.6     1.2     6.7     8.8     6.1     4.8     4.3     3.7     31.     66.     37.     80.     69.     70.     56.     56.     69.     72.     0.0     0.1     0.0     0.1     0.4     0.8     0.5     0.4     0.3     0.3     0.4     1.2     0.6     1.2     6.3     8.1     5.6     4.5     4.0     3.5     0.0     0.1     0.0     0.1     0.5     1.0     1.8     1.4     0.3     0.3