*GROWTH ASPECTS OUTPUT FILE

*DSSAT Cropping System Model Ver. 4.7.5.008 -release  MAY 04, 2021 17:13:26

*RUN   1        : ET-SIMAGRI                MZCER047 ETMZcccc    1
 MODEL          : MZCER047 - Maize
 EXPERIMENT     : ETMZcccc SN MELKSSAL
 DATA PATH      : C:\IRI\Python_Dash\ET_DSS_hist\TEST\
 TREATMENT  1   : ET-SIMAGRI                MZCER047
  
!                                                                                                                                                                                                                                      Root Dens. (cm/cm3) by soil depth (cm):
!                                                                                                                                                                                                                                      0-5    5-15   15-20   20-35   35-50   50-65   65-81   81-97  97-118 118-200
@YEAR DOY   DAS   DAP   L#SD   GSTD   LAID   LWAD   SWAD   GWAD   RWAD   VWAD   CWAD   G#AD   GWGD   HIAD   PWAD   P#AD   WSPD   WSGD   NSTD   EWSD  PST1A  PST2A   KSTD   LN%D   SH%D   HIPD   PWDD   PWTD     SLAD   CHTD   CWID   RDPD    RL1D    RL2D    RL3D    RL4D    RL5D    RL6D    RL7D    RL8D    RL9D   RL10D   CDAD   LDAD   SDAD   SNW0C   SNW1C  DTTD
 1981 166     2     0    0.0      0   0.00      0      0      0      0      0      0      0    0.0  0.000      0      0  0.000  0.000  0.000  0.000  0.000  0.000  0.000   0.00   0.00   0.00      0      0      0.0   0.00   0.00   0.03    0.00    0.00    0.00    0.00    0.00    0.00    0.00    0.00    0.00    0.00      0      0      0       0       0 15.13
 1981 167     3     1    0.0      0   0.00      0      0      0      0      0      0      0    0.0  0.000      0      0  0.000  0.000  0.000  0.000  0.000  0.000  0.000   0.00   0.00   0.00      0      0      0.0   0.00   0.00   0.05    0.00    0.00    0.00    0.00    0.00    0.00    0.00    0.00    0.00    0.00      0      0      0       0       0 16.57
 1981 168     4     2    0.0      0   0.00      0      0      0      0      0      0      0    0.0  0.000      0      0  0.000  0.000  0.000  0.000  0.000  0.000  0.000   0.00   0.00   0.00      0      0      0.0   0.00   0.00   0.07    0.00    0.00    0.00    0.00    0.00    0.00    0.00    0.00    0.00    0.00      0      0      0       0       0 15.78
 1981 169     5     3    0.0      0   0.00      0      0      0      0      0      0      0    0.0  0.000      0      0  0.000  0.000  0.000  0.000  0.000  0.000  0.000   0.00   0.00   0.00      0      0      0.0   0.00   0.00   0.10    0.00    0.00    0.00    0.00    0.00    0.00    0.00    0.00    0.00    0.00      0      0      0       0       0 17.28
 1981 170     6     4    0.0      0   0.00      0      0      0      0      0      0      0    0.0  0.000      0      0  0.000  0.000  0.000  0.000  0.000  0.000  0.000   0.00   0.00   0.00      0      0      0.0   0.00   0.00   0.12    0.00    0.00    0.00    0.00    0.00    0.00    0.00    0.00    0.00    0.00      0      0      0       0       0 15.66
 1981 171     7     5    2.0      1   0.00     12     12      0     12     24     24      0    0.0  0.000      0      0  0.000  0.000  0.012  0.000  0.000  0.000  0.000   4.40   0.00   0.00      0      0     27.9   0.00   0.00   0.14    0.24    0.09    0.00    0.00    0.00    0.00    0.00    0.00    0.00    0.00      0      0      0       0       0 14.98
 1981 172     8     6    2.0      1   0.01     12     12      0     12     24     24      0    0.0  0.000      0      0  0.000  0.000  0.014  0.000  0.000  0.000  0.000   4.40   0.00   0.00      0      0     54.2   0.00   0.00   0.15    0.24    0.09    0.00    0.00    0.00    0.00    0.00    0.00    0.00    0.00      0      0      0       0       0 14.61
 1981 173     9     7    3.0      1   0.01     12     12      0     13     24     24      0    0.0  0.000      0      0  0.000  0.000  0.007  0.000  0.000  0.000  0.000   4.40   0.00   0.00      0      0     87.4   0.01   0.00   0.17    0.23    0.10    0.00    0.00    0.00    0.00    0.00    0.00    0.00    0.00      0      0      0       0       0 15.93
 1981 174    10     8    3.0      1   0.02     12     12      0     14     24     24      0    0.0  0.000      0      0  0.000  0.000  0.001  0.000  0.000  0.000  0.000   4.40   0.00   0.00      0      0    125.6   0.01   0.00   0.18    0.23    0.12    0.01    0.00    0.00    0.00    0.00    0.00    0.00    0.00      0      0      0       0       0 16.41
 1981 175    11     9    4.0      1   0.03     12     12      0     15     24     24      0    0.0  0.000      0      0  0.000  0.000  0.000  0.000  0.000  0.000  0.000   4.40   0.00   0.00      0      0    244.3   0.02   0.00   0.20    0.25    0.13    0.03    0.00    0.00    0.00    0.00    0.00    0.00    0.00      0      0      0       0       0 15.31
 1981 176    12    10    4.0      1   0.05     14     12      0     17     26     26      0    0.0  0.000      0      0  0.000  0.000  0.000  0.000  0.000  0.000  0.000   4.07   0.00   0.00      0      0    333.2   0.03   0.00   0.21    0.26    0.15    0.04    0.00    0.00    0.00    0.00    0.00    0.00    0.00      0      0      0       0       0 15.75
 1981 177    13    11    5.0      1   0.07     22     12      0     18     34     34      0    0.0  0.000      0      0  0.000  0.000  0.000  0.000  0.000  0.000  0.000   3.14   0.00   0.00      0      0    304.9   0.04   0.00   0.22    0.27    0.16    0.05    0.00    0.00    0.00    0.00    0.00    0.00    0.00      0      0      0       0       0 15.29
 1981 178    14    12    5.0      1   0.09     30     12      0     19     42     42      0    0.0  0.000      0      0  0.000  0.000  0.019  0.000  0.000  0.000  0.000   3.39   0.00   0.00      0      0    285.6   0.05   0.00   0.23    0.28    0.17    0.06    0.00    0.00    0.00    0.00    0.00    0.00    0.00      0      0      0       0       0 13.60
 1981 179    15    13    5.0      1   0.11     41     12      0     21     53     53      0    0.0  0.000      0      0  0.000  0.000  0.000  0.000  0.000  0.000  0.000   3.29   0.00   0.00      0      0    267.6   0.06   0.00   0.25    0.30    0.18    0.08    0.00    0.00    0.00    0.00    0.00    0.00    0.00      0      0      0       0       0 15.44
 1981 180    16    14    6.0      1   0.12     48     12      0     25     60     60      0    0.0  0.000      0      0  0.178  0.452  0.000  0.000  0.000  0.000  0.000   3.61   0.00   0.00      0      0    257.0   0.07   0.00   0.26    0.34    0.22    0.12    0.00    0.00    0.00    0.00    0.00    0.00    0.00      0      0      0       0       0 16.09
 1981 181    17    15    6.0      1   0.16     64     12      0     29     76     76      0    0.0  0.000      0      0  0.000  0.000  0.000  0.000  0.000  0.000  0.000   3.25   0.00   0.00      0      0    244.3   0.09   0.00   0.27    0.38    0.25    0.15    0.00    0.00    0.00    0.00    0.00    0.00    0.00      0      0      0       0       0 15.40
 1981 182    18    16    6.0      1   0.18     78     12      0     31     90     90      0    0.0  0.000      0      0  0.000  0.000  0.000  0.000  0.000  0.000  0.000   3.38   0.00   0.00      0      0    234.1   0.10   0.00   0.28    0.40    0.27    0.17    0.01    0.00    0.00    0.00    0.00    0.00    0.00      0      0      0       0       1 12.86
 1981 183    19    17    7.0      1   0.20     88     12      0     37    100    100      0    0.0  0.000      0      0  0.137  0.425  0.000  0.000  0.000  0.000  0.000   3.60   0.00   0.00      0      0    227.5   0.11   0.00   0.29    0.46    0.33    0.22    0.01    0.00    0.00    0.00    0.00    0.00    0.00      0      0      0       0       1 13.24
 1981 184    20    18    7.0      1   0.21     97     12      0     44    109    109      0    0.0  0.000      0      0  0.432  0.622  0.000  0.000  0.000  0.000  0.000   3.65   0.00   0.00      0      0    219.0   0.12   0.00   0.30    0.52    0.38    0.28    0.02    0.00    0.00    0.00    0.00    0.00    0.00      0      0      0       0       1 15.05
 1981 185    21    19    8.0      1   0.25    121     12      0     51    133    133      0    0.0  0.000      0      0  0.000  0.000  0.000  0.000  0.000  0.000  0.000   3.20   0.00   0.00      0      0    211.0   0.14   0.00   0.31    0.58    0.45    0.33    0.03    0.00    0.00    0.00    0.00    0.00    0.00      0      0      0       0       1 14.41
 1981 186    22    20    8.0      2   0.31    140     12      0     62    152    152      0    0.0  0.000      0      0  0.000  0.000  0.000  0.000  0.000  0.000  0.000   3.38   0.00   0.00      0      0    220.3   0.17   0.00   0.33    0.69    0.55    0.42    0.04    0.00    0.00    0.00    0.00    0.00    0.00      0      0      0       0       1 14.12
 1981 187    23    21    8.0      2   0.37    176     12      0     71    188    188      0    0.0  0.000      0      0  0.000  0.000  0.003  0.000  0.000  0.000  0.000   3.15   0.00   0.00      0      0    211.5   0.21   0.00   0.36    0.78    0.63    0.49    0.06    0.00    0.00    0.00    0.00    0.00    0.00      0      0      0       0       2 15.32
 1981 188    24    22    9.0      2   0.42    207     12      0     90    219    219      0    0.0  0.000      0      0  0.000  0.265  0.000  0.000  0.000  0.000  0.000   3.29   0.00   0.00      0      0    204.6   0.23   0.00   0.37    0.96    0.79    0.62    0.08    0.00    0.00    0.00    0.00    0.00    0.00      0      0      0       0       2 15.63
 1981 189    25    23    9.0      2   0.46    233     12      0    106    245    245      0    0.0  0.000      0      0  0.103  0.402  0.000  0.000  0.000  0.000  0.000   4.06   0.00   0.00      0      0    199.3   0.26   0.00   0.38    1.06    0.96    0.75    0.11    0.00    0.00    0.00    0.00    0.00    0.00      0      0      0       0       2 14.68
 1981 190    26    24    9.0      2   0.51    260     12      0    121    272    272      0    0.0  0.000      0      0  0.000  0.313  0.000  0.000  0.000  0.000  0.000   3.91   0.00   0.00      0      0    194.9   0.28   0.00   0.38    1.07    1.13    0.89    0.14    0.00    0.00    0.00    0.00    0.00    0.00      0      0      0       0       3 12.28
 1981 191    27    25   10.0      3   0.54    286     12      0    140    298    298      0    0.0  0.000      0      0  0.081  0.388  0.000  0.000  0.000  0.000  0.000   3.82   0.00   0.00      0      0    189.4   0.30   0.00   0.39    1.25    1.30    1.01    0.17    0.00    0.00    0.00    0.00    0.00    0.00      0      0      0       0       4 12.10
 1981 192    28    26   10.0      3   0.62    335     12      0    148    348    348      0    0.0  0.000      0      0  0.000  0.000  0.000  0.000  0.000  0.000  0.000   3.77   0.00   0.00      0      0    184.2   0.34   0.00   0.40    1.31    1.37    1.08    0.18    0.00    0.00    0.00    0.00    0.00    0.00      0      0      0       0       4 12.76
 1981 193    29    27   10.0      3   0.70    389     13      0    156    402    402      0    0.0  0.000      0      0  0.000  0.000  0.000  0.000  0.000  0.000  0.000   3.72   0.00   0.00      0      0    179.4   0.39   0.00   0.41    1.36    1.44    1.15    0.21    0.00    0.00    0.00    0.00    0.00    0.00      0      0      0       0       5 12.82
 1981 194    30    28   11.0      3   0.80    458     16      0    179    473    473      0    0.0  0.000      0      0  0.000  0.000  0.000  0.000  0.000  0.000  0.000   3.68   0.00   0.00      0      0    174.1   0.44   0.00   0.42    1.50    1.60    1.33    0.29    0.00    0.00    0.00    0.00    0.00    0.00      0      0      0       0       6 14.78
 1981 195    31    29   11.0      3   0.89    523     19      0    199    542    542      0    0.0  0.000      0      0  0.000  0.000  0.000  0.000  0.000  0.000  0.000   3.61   0.00   0.00      0      0    169.9   0.49   0.00   0.42    1.63    1.74    1.48    0.35    0.01    0.00    0.00    0.00    0.00    0.00      0      0      0       0       7 12.85
 1981 196    32    30   11.0      3   0.98    593     24      0    219    617    617      0    0.0  0.000      0      0  0.000  0.000  0.000  0.000  0.000  0.000  0.000   3.56   0.00   0.00      0      0    166.0   0.55   0.00   0.43    1.78    1.88    1.63    0.41    0.01    0.00    0.00    0.00    0.00    0.00      0      0      0       0       8 12.70
 1981 197    33    31   12.0      3   1.09    676     32      0    242    708    708      0    0.0  0.000      0      0  0.000  0.000  0.000  0.000  0.000  0.000  0.000   3.53   0.00   0.00      0      0    162.0   0.61   0.00   0.44    1.95    2.04    1.79    0.49    0.01    0.00    0.00    0.00    0.00    0.00      0      0      0       0       9 12.20
 1981 198    34    32   12.0      3   1.21    763     43      0    258    806    806      0    0.0  0.000      0      0  0.000  0.000  0.000  0.000  0.000  0.000  0.000   3.47   0.00   0.00      0      0    158.4   0.67   0.00   0.45    2.05    2.16    1.91    0.54    0.02    0.00    0.00    0.00    0.00    0.00      0      0      0       0      10 12.45
 1981 199    35    33   12.0      3   1.32    850     57      0    283    908    908      0    0.0  0.000      0      0  0.000  0.000  0.000  0.000  0.000  0.000  0.000   3.42   0.00   0.00      0      0    155.1   0.73   0.00   0.46    2.16    2.34    2.11    0.64    0.03    0.00    0.00    0.00    0.00    0.00      0      0      0       0      11 12.30
 1981 200    36    34   13.0      3   1.43    941     75      0    305   1016   1016      0    0.0  0.000      0      0  0.000  0.000  0.000  0.000  0.000  0.000  0.000   3.37   0.00   0.00      0      0    152.2   0.79   0.00   0.46    2.26    2.50    2.29    0.72    0.03    0.00    0.00    0.00    0.00    0.00      0      0      0       0      13 12.40
 1981 201    37    35   13.0      3   1.54   1032     96      0    321   1129   1129      0    0.0  0.000      0      0  0.000  0.000  0.000  0.000  0.000  0.000  0.000   3.33   0.00   0.00      0      0    149.5   0.86   0.00   0.47    2.32    2.61    2.42    0.79    0.04    0.00    0.00    0.00    0.00    0.00      0      0      0       0      14 12.30
 1981 202    38    36   13.0      3   1.66   1131    124      0    345   1255   1255      0    0.0  0.000      0      0  0.000  0.000  0.000  0.000  0.000  0.000  0.000   3.29   0.00   0.00      0      0    146.9   0.92   0.00   0.48    2.39    2.76    2.60    0.90    0.05    0.00    0.00    0.00    0.00    0.00      0      0      0       0      16 13.00
 1981 203    39    37   14.0      3   1.77   1221    153      0    364   1374   1374      0    0.0  0.000      0      0  0.000  0.000  0.000  0.000  0.000  0.000  0.000   3.23   0.00   0.00      0      0    144.8   0.98   0.00   0.49    2.44    2.86    2.73    1.00    0.07    0.00    0.00    0.00    0.00    0.00      0      0      0       0      18 11.65
 1981 204    40    38   14.0      3   1.88   1315    189      0    396   1504   1504      0    0.0  0.000      0      0  0.000  0.000  0.000  0.000  0.000  0.000  0.000   3.19   0.00   0.00      0      0    142.7   1.04   0.00   0.50    2.44    2.96    2.98    1.21    0.12    0.00    0.00    0.00    0.00    0.00      0      0      0       0      19 12.00
 1981 205    41    39   14.0      3   1.99   1413    231      0    435   1644   1644      0    0.0  0.000      0      0  0.000  0.000  0.000  0.000  0.000  0.000  0.000   3.03   0.00   0.00      0      0    140.8   1.10   0.00   0.50    2.47    2.99    3.01    1.52    0.28    0.00    0.00    0.00    0.00    0.00      0      0      0       0      21 12.35
 1981 206    42    40   15.0      3   2.10   1510    278      0    460   1788   1788      0    0.0  0.000      0      0  0.000  0.000  0.000  0.000  0.000  0.000  0.000   2.85   0.00   0.00      0      0    139.0   1.16   0.00   0.51    2.51    3.03    3.05    1.61    0.45    0.01    0.00    0.00    0.00    0.00      0      0      0       0      24 12.00
 1981 207    43    41   15.0      3   2.19   1595    324      0    467   1918   1918      0    0.0  0.000      0      0  0.000  0.000  0.000  0.000  0.000  0.000  0.000   2.70   0.00   0.00      0      0    137.5   1.22   0.00   0.52    2.53    3.04    3.06    1.62    0.52    0.02    0.00    0.00    0.00    0.00      0      0      0       0      26 10.40
 1981 208    44    42   15.0      3   2.29   1687    379      0    500   2065   2065      0    0.0  0.000      0      0  0.000  0.000  0.009  0.000  0.000  0.000  0.000   2.54   0.00   0.00      0      0    135.9   1.27   0.00   0.52    2.61    3.13    3.14    1.67    0.75    0.06    0.00    0.00    0.00    0.00      0      0      0       0      28 11.40
 1981 209    45    43   15.0      3   2.38   1778    439      0    528   2217   2217      0    0.0  0.000      0      0  0.000  0.000  0.032  0.000  0.000  0.000  0.000   2.40   0.00   0.00      0      0    133.9   1.32   0.00   0.53    2.69    3.20    3.21    1.71    0.92    0.10    0.00    0.00    0.00    0.00      0      0      0       0      31 11.85
 1981 210    46    44   16.0      3   2.45   1857    497      0    533   2353   2353      0    0.0  0.000      0      0  0.000  0.000  0.056  0.000  0.000  0.000  0.000   2.29   0.00   0.00      0      0    131.9   1.36   0.00   0.54    2.70    3.21    3.22    1.72    0.95    0.12    0.00    0.00    0.00    0.00      0      0      0       0      33 11.50
 1981 211    47    45   16.0      3   2.51   1937    561      0    541   2498   2498      0    0.0  0.000      0      0  0.000  0.000  0.078  0.000  0.000  0.000  0.000   2.18   0.00   0.00      0      0    129.6   1.39   0.00   0.55    2.72    3.23    3.24    1.73    1.00    0.14    0.00    0.00    0.00    0.00      0      0      0       0      36 11.70
 1981 212    48    46   16.0      3   2.55   2008    623      0    551   2630   2630      0    0.0  0.000      0      0  0.000  0.000  0.095  0.000  0.000  0.000  0.000   2.08   0.00   0.00      0      0    127.2   1.42   0.00   0.55    2.75    3.25    3.27    1.75    1.03    0.17    0.00    0.00    0.00    0.00      0      0      0       0      39 10.85
 1981 213    49    47   17.0      3   2.59   2080    689      0    585   2769   2772      0    0.0  0.000      3      0  0.000  0.000  0.112  0.000  0.000  0.000  0.000   2.00   0.00   0.00      0      3    124.7   1.44   0.00   0.56    2.88    3.38    3.40    1.82    1.13    0.28    0.00    0.00    0.00    0.00      0      0      0       0      41 11.70
 1981 214    50    48   17.0      3   2.64   2162    735      0    590   2897   2901      0    0.0  0.000      4      0  0.000  0.000  0.124  0.000  0.000  0.000  0.000   1.92   0.00   0.00      0      4    122.0   1.46   0.00   0.57    2.90    3.39    3.41    1.83    1.14    0.30    0.00    0.00    0.00    0.00      0      0      0       0      44 12.15
 1981 215    51    49   17.0      3   2.69   2253    829      0    597   3081   3089      0    0.0  0.000      8      0  0.000  0.000  0.135  0.000  0.000  0.000  0.000   1.82   0.00   0.00      0      8    119.3   1.49   0.00   0.58    2.93    3.43    3.44    1.85    1.14    0.33    0.00    0.00    0.00    0.00      0      0      0       0      47 12.15
 1981 216    52    50   18.0      3   2.71   2324    924      0    604   3248   3260      0    0.0  0.000     13      0  0.000  0.000  0.145  0.000  0.000  0.000  0.000   1.74   0.00   0.00      0     13    116.6   1.50   0.00   0.58    2.97    3.46    3.48    1.87    1.13    0.35    0.00    0.00    0.00    0.00      0      0      0       0      50 12.20
 1981 217    53    51   18.0      3   2.72   2387   1023      0    617   3410   3429      0    0.0  0.000     20      0  0.000  0.000  0.159  0.000  0.000  0.000  0.000   1.68   0.00   0.01      0     20    113.9   1.51   0.00   0.59    3.04    3.53    3.54    1.91    1.14    0.40    0.00    0.00    0.00    0.00      0      0      0       0      53 12.25
 1981 218    54    52   18.0      3   2.71   2440   1114      0    641   3554   3583      0    0.0  0.000     29      0  0.000  0.000  0.170  0.000  0.000  0.000  0.000   1.62   0.00   0.01      0     29    111.3   1.51   0.00   0.60    3.16    3.65    3.66    1.98    1.14    0.47    0.00    0.00    0.00    0.00      0      0      0       0      56 12.15
 1981 219    55    53   18.0      3   2.70   2485   1195      0    684   3680   3721      0    0.0  0.000     42      0  0.000  0.000  0.179  0.000  0.000  0.000  0.000   1.58   0.00   0.01      0     42    108.6   1.51   0.00   0.61    3.39    3.87    3.89    2.10    1.16    0.58    0.00    0.00    0.00    0.00      0      0      0       0      60 11.80
 1981 220    56    54   19.0      3   2.68   2525   1268      0    726   3793   3850      0    0.0  0.000     57      0  0.000  0.000  0.186  0.000  0.000  0.000  0.000   1.54   0.00   0.01      0     57    106.0   1.51   0.00   0.61    3.61    4.00    4.00    2.23    1.18    0.69    0.00    0.00    0.00    0.00      0      0      0       0      63 11.60
 1981 221    57    55   19.0      3   2.65   2565   1347      0    764   3911   3988      0    0.0  0.000     76      0  0.000  0.000  0.189  0.000  0.000  0.000  0.000   1.51   0.00   0.02      0     76    103.4   1.51   0.00   0.62    3.81    4.00    4.00    2.35    1.20    0.79    0.00    0.00    0.00    0.00      0      0      0       0      67 12.90
 1981 222    58    56   19.0      3   2.62   2600   1419      0    786   4019   4114      0    0.0  0.000     95      0  0.000  0.000  0.192  0.000  0.000  0.000  0.000   1.48   0.00   0.02      0     95    100.9   1.51   0.00   0.63    3.93    4.00    4.00    2.41    1.20    0.84    0.00    0.00    0.00    0.00      0      0      0       0      71 12.25
 1981 223    59    57   20.0      3   2.59   2634   1489      0    801   4123   4241      0    0.0  0.000    117      0  0.000  0.000  0.194  0.000  0.000  0.000  0.000   1.45   0.00   0.03      0    117     98.4   1.51   0.00   0.64    4.00    4.00    4.00    2.46    1.21    0.88    0.00    0.00    0.00    0.00      0      0      0       0      74 12.55
 1981 224    60    58   20.0      3   2.56   2663   1553      0    803   4217   4354      0    0.0  0.000    137      0  0.000  0.000  0.196  0.000  0.000  0.000  0.000   1.43   0.00   0.03      0    137     96.0   1.51   0.00   0.65    4.00    4.00    4.00    2.47    1.20    0.89    0.00    0.00    0.00    0.00      0      0      0       0      78 11.75
 1981 225    61    59   20.0      3   2.52   2692   1600      0    842   4292   4469      0    0.0  0.000    177      0  0.000  0.000  0.197  0.000  0.000  0.000  0.000   1.42   0.00   0.04      0    177     93.7   1.51   0.00   0.65    4.00    4.00    4.00    2.59    1.22    0.98    0.00    0.00    0.00    0.00      0      0      0       0      82 11.85
 1981 226    62    60   21.0      3   2.49   2720   1643      0    879   4364   4587      0    0.0  0.000    223      0  0.000  0.000  0.197  0.000  0.000  0.000  0.000   1.40   0.00   0.05      0    223     91.4   1.51   0.00   0.65    4.00    4.00    4.00    2.70    1.24    1.05    0.00    0.00    0.00    0.00      0      0      0       0      87 12.35
 1981 227    63    61   21.0      3   2.45   2748   1677      0    913   4425   4701      0    0.0  0.000    276      0  0.000  0.000  0.198  0.000  0.000  0.000  0.000   1.39   0.00   0.06      0    276     89.2   1.51   0.00   0.65    4.00    4.00    4.00    2.82    1.25    1.12    0.00    0.00    0.00    0.00      0      0      0       0      91 11.95
 1981 228    64    62   21.0      3   2.42   2775   1716      0    922   4491   4810      0    0.0  0.000    319      0  0.000  0.000  0.199  0.000  0.000  0.000  0.000   1.38   0.00   0.07      0    319     87.1   1.51   0.00   0.65    4.00    4.00    4.00    2.84    1.25    1.14    0.00    0.00    0.00    0.00      0      0      0       0      96 11.40
 1981 229    65    63   21.0      3   2.38   2803   1728      0    962   4531   4925      0    0.0  0.000    394      0  0.000  0.000  0.198  0.000  0.000  0.000  0.000   1.38   0.00   0.08      0    394     85.1   1.51   0.00   0.65    4.00    4.00    4.00    2.98    1.27    1.21    0.00    0.00    0.00    0.00      0      0      0       0     100 12.00
 1981 230    66    64   21.0      3   2.35   2832   1773      0   1014   4605   5045      0    0.0  0.000    440      0  0.000  0.000  0.197  0.000  0.000  0.000  0.000   1.37   0.00   0.09      0    440     83.1   1.51   0.00   0.65    4.00    4.00    4.00    3.15    1.30    1.28    0.00    0.00    0.00    0.00      0      0      0       0     105 12.40
 1981 231    67    65   21.0      3   2.32   2861   1818      0   1069   4679   5163      0    0.0  0.000    484      0  0.000  0.000  0.195  0.000  0.000  0.000  0.000   1.35   0.00   0.09      0    484     81.3   1.51   0.00   0.65    4.00    4.00    4.00    3.33    1.33    1.36    0.00    0.00    0.00    0.00      0      0      0       0     110 12.20
 1981 232    68    66   21.0      3   2.30   2889   1863      0   1105   4752   5281      0    0.0  0.000    529      0  0.000  0.000  0.195  0.000  0.000  0.000  0.000   1.34   0.00   0.10      0    529     79.4   1.51   0.00   0.65    4.00    4.00    4.00    3.45    1.34    1.41    0.00    0.00    0.00    0.00      0      0      0       0     115 12.10
 1981 233    69    67   21.0      3   2.27   2916   1904      0   1146   4820   5390      0    0.0  0.000    570      0  0.000  0.000  0.195  0.000  0.000  0.000  0.000   1.33   0.00   0.11      0    570     77.7   1.51   0.00   0.65    4.00    4.00    4.00    3.59    1.36    1.46    0.00    0.00    0.00    0.00      0      0      0       0     121 11.25
 1981 234    70    68   21.0      4   2.21   2885   2003      0   1147   4888   5507      0    0.0  0.000    619      0  0.000  0.000  0.195  0.000  0.000  0.000  0.000   1.32   0.00   0.11      0    619     76.6   1.51   0.00   0.65    4.00    4.00    4.00    3.60    1.36    1.46    0.00    0.00    0.00    0.00      0      0      0       0     127 11.65
 1981 235    71    69   21.0      4   2.16   2852   2107      0   1148   4959   5635      0    0.0  0.000    676      0  0.000  0.000  0.193  0.000  0.000  0.000  0.000   1.31   0.00   0.12      0    676     75.6   1.51   0.00   0.65    4.00    4.00    4.00    3.60    1.36    1.46    0.00    0.00    0.00    0.00      0      0      0       0     132 12.30
 1981 236    72    70   21.0      4   2.10   2817   2200      0   1149   5017   5747      0    0.0  0.000    730      0  0.000  0.000  0.193  0.000  0.000  0.000  0.000   1.30   0.00   0.13      0    730     74.7   1.51   0.00   0.65    4.00    4.00    4.00    3.61    1.35    1.46    0.00    0.00    0.00    0.00      0      0      0       0     138 11.65
 1981 237    73    71   21.0      4   2.05   2780   2299      0   1150   5079   5872      0    0.0  0.000    793      0  0.000  0.000  0.192  0.000  0.000  0.000  0.000   1.29   0.00   0.14      0    793     73.9   1.51   0.00   0.65    4.00    4.00    4.00    3.61    1.35    1.47    0.00    0.00    0.00    0.00      0      0      0       0     144 12.20
 1981 238    74    72   21.0      4   2.01   2742   2389      0   1151   5131   5985      0    0.0  0.000    854      0  0.000  0.000  0.190  0.000  0.000  0.000  0.000   1.29   0.00   0.14      0    854     73.1   1.51   0.00   0.65    4.00    4.00    4.00    3.62    1.35    1.46    0.00    0.00    0.00    0.00      0      0      0       0     150 12.40
 1981 239    75    73   21.0      4   1.96   2701   2487      0   1152   5188   6113      0    0.0  0.000    925      0  0.000  0.000  0.189  0.000  0.000  0.000  0.000   1.28   0.00   0.15      0    925     72.5   1.51   0.00   0.65    4.00    4.00    4.00    3.62    1.34    1.46    0.00    0.00    0.00    0.00      0      0      0       0     155 12.10
 1981 240    76    74   21.0      4   1.91   2659   2590      0   1154   5249   6253      0    0.0  0.000   1003      0  0.000  0.000  0.186  0.000  0.000  0.000  0.000   1.27   0.00   0.16      0   1003     71.9   1.51   0.00   0.65    4.00    4.00    4.00    3.63    1.34    1.47    0.00    0.00    0.00    0.00      0      0      0       0     161 12.20
 1981 241    77    75   21.0      4   1.87   2615   2688      0   1156   5303   6384      0    0.0  0.000   1082      0  0.000  0.000  0.184  0.000  0.000  0.000  0.000   1.27   0.00   0.17      0   1082     71.4   1.51   0.00   0.65    4.00    4.00    4.00    3.64    1.34    1.47    0.00    0.00    0.00    0.00      0      0      0       0     167 12.00
 1981 242    78    76   21.0      4   1.83   2569   2770      0   1157   5340   6490      0    0.0  0.000   1150      0  0.000  0.000  0.183  0.000  0.000  0.000  0.000   1.27   0.00   0.18      0   1150     71.1   1.51   0.00   0.65    4.00    4.00    4.00    3.64    1.34    1.46    0.00    0.00    0.00    0.00      0      0      0       0     173 12.15
 1981 243    79    77   21.0      4   1.78   2522   2843      0   1157   5365   6579      0    0.0  0.000   1214      0  0.000  0.000  0.180  0.000  0.000  0.000  0.000   1.27   0.00   0.18      0   1214     70.8   1.51   0.00   0.65    4.00    4.00    4.00    3.65    1.33    1.46    0.00    0.00    0.00    0.00      0      0      0       0     179 12.30
 1981 244    80    78   21.0      4   1.75   2473   2910      0   1157   5382   6656      0    0.0  0.000   1274      0  0.000  0.000  0.177  0.000  0.000  0.000  0.000   1.27   0.00   0.19      0   1274     70.6   1.51   0.00   0.65    4.00    4.00    4.00    3.65    1.33    1.46    0.00    0.00    0.00    0.00      0      0      0       0     184 10.95
 1981 245    81    79   21.0      4   1.71   2422   3016      0   1160   5438   6813      0    0.0  0.000   1375      0  0.000  0.000  0.173  0.000  0.000  0.000  0.000   1.27   0.00   0.20      0   1375     70.5   1.51   0.00   0.65    4.00    4.00    4.00    3.66    1.33    1.46    0.00    0.00    0.00    0.00      0      0      0       0     190 12.30