*SOIL-PLANT-ATMOSPHERE MODULE OUTPUT FILE

*DSSAT Cropping System Model Ver. 4.7.5.008 -release  MAY 04, 2021 17:13:26

*RUN   1        : ET-SIMAGRI                MZCER047 ETMZcccc    1
 MODEL          : MZCER047 - Maize
 EXPERIMENT     : ETMZcccc SN MELKSSAL
 DATA PATH      : C:\IRI\Python_Dash\ET_DSS_hist\TEST\
 TREATMENT  1   : ET-SIMAGRI                MZCER047
  
!                                                                                                                                                                                        Soil evaporation (mm/d) by soil depth (cm):
!                                                                                                                                                                                        0-5    5-15   15-20   20-35   35-50   50-65   65-81   81-97  97-118 118-200
@YEAR DOY   DAS   SRAA  TMAXA  TMINA    REFA    EOAA    EOPA    EOSA    KCAA    KCBA    KEAA    ETAA    EPAA    ESAA    EFAA    EMAA    EOAC    ETAC    EPAC    ESAC    EFAC    EMAC    ES1D    ES2D    ES3D    ES4D    ES5D    ES6D    ES7D    ES8D    ES9D   ES10D   TRWUD
 1981 165     1  21.00  29.40  14.70 -99.000   5.502   0.000   5.502 -99.000 -99.000 -99.000   1.007   0.000   1.007   0.000   0.000    5.50    1.01    0.00    1.01    0.00    0.00   0.824   0.105   0.017   0.022   0.015   0.008   0.005   0.003   0.003   0.006   0.000
 1981 166     2  19.00  28.70  15.50 -99.000   4.948   0.000   4.948 -99.000 -99.000 -99.000   0.932   0.000   0.932   0.000   0.000   10.45    1.94    0.00    1.94    0.00    0.00   0.749   0.104   0.017   0.022   0.015   0.008   0.005   0.003   0.003   0.006   0.000
 1981 167     3  21.90  31.20  14.90 -99.000   5.819   0.000   5.819 -99.000 -99.000 -99.000   0.863   0.000   0.863   0.000   0.000   16.27    2.80    0.00    2.80    0.00    0.00   0.681   0.104   0.017   0.021   0.015   0.008   0.005   0.003   0.003   0.006   0.000
 1981 168     4  20.10  28.90  16.60 -99.000   5.253   0.000   5.253 -99.000 -99.000 -99.000   0.800   0.000   0.800   0.000   0.000   21.52    3.60    0.00    3.60    0.00    0.00   0.619   0.103   0.017   0.021   0.015   0.008   0.005   0.003   0.003   0.006   0.000
 1981 169     5  22.60  32.30  14.90 -99.000   6.040   0.000   6.040 -99.000 -99.000 -99.000   0.743   0.000   0.743   0.000   0.000   27.56    4.35    0.00    4.35    0.00    0.00   0.563   0.102   0.017   0.021   0.015   0.008   0.005   0.003   0.003   0.006   0.000
 1981 170     6  20.20  28.90  16.30 -99.000   5.237   0.000   5.237 -99.000 -99.000 -99.000   0.691   0.000   0.691   0.000   0.000   32.80    5.04    0.00    5.04    0.00    0.00   0.512   0.102   0.017   0.021   0.015   0.008   0.005   0.003   0.003   0.006   0.000
 1981 171     7  19.10  28.00  16.10 -99.000   4.881   0.000   4.881 -99.000 -99.000 -99.000   0.644   0.000   0.644   0.000   0.000   37.68    5.68    0.00    5.68    0.00    0.00   0.465   0.101   0.017   0.021   0.015   0.008   0.005   0.003   0.003   0.006   0.000
 1981 172     8  19.10  27.50  15.90 -99.000   4.833   0.011   4.822 -99.000 -99.000 -99.000   0.612   0.011   0.601   0.000   0.000   42.51    6.29    0.01    6.28    0.00    0.00   0.423   0.101   0.017   0.021   0.015   0.008   0.005   0.003   0.003   0.006   0.001
 1981 173     9  20.30  30.00  15.40 -99.000   5.252   0.023   5.229 -99.000 -99.000 -99.000   0.585   0.023   0.562   0.000   0.000   47.76    6.88    0.03    6.84    0.00    0.00   0.384   0.100   0.017   0.021   0.015   0.008   0.005   0.003   0.003   0.006   0.002
 1981 174    10  21.90  31.00  14.80 -99.000   5.692   0.041   5.651 -99.000 -99.000 -99.000   0.567   0.041   0.526   0.000   0.000   53.46    7.45    0.08    7.37    0.00    0.00   0.349   0.099   0.017   0.021   0.015   0.008   0.005   0.003   0.003   0.006   0.004
 1981 175    11  19.70  28.00  16.80 -99.000   5.013   0.051   4.962 -99.000 -99.000 -99.000   0.791   0.051   0.739   0.000   0.000   58.47    8.24    0.13    8.11    0.00    0.00   0.563   0.098   0.017   0.021   0.015   0.008   0.005   0.003   0.003   0.006   0.005
 1981 176    12  21.20  30.20  14.50 -99.000   5.559   0.110   5.449 -99.000 -99.000 -99.000   1.187   0.110   1.077   0.000   0.000   64.03    9.42    0.24    9.19    0.00    0.00   0.899   0.101   0.017   0.021   0.015   0.008   0.005   0.003   0.003   0.006   0.011
 1981 177    13  20.40  29.10  15.10 -99.000   5.352   0.167   5.185 -99.000 -99.000 -99.000   1.302   0.167   1.135   0.000   0.000   69.38   10.73    0.40   10.32    0.00    0.00   0.955   0.103   0.017   0.021   0.015   0.008   0.005   0.003   0.003   0.006   0.017
 1981 178    14  17.30  25.40  16.60 -99.000   4.368   0.192   4.175 -99.000 -99.000 -99.000   1.230   0.192   1.039   0.000   0.000   73.75   11.96    0.59   11.36    0.00    0.00   0.859   0.102   0.017   0.021   0.015   0.008   0.005   0.003   0.003   0.006   0.019
 1981 179    15  18.40  28.50  16.60 -99.000   4.784   0.270   4.513 -99.000 -99.000 -99.000   1.219   0.270   0.949   0.000   0.000   78.53   13.17    0.86   12.31    0.00    0.00   0.771   0.101   0.017   0.021   0.015   0.008   0.005   0.003   0.003   0.006   0.027
 1981 180    16  20.50  30.10  15.60 -99.000   5.352   0.386   4.964 -99.000 -99.000 -99.000   1.330   0.317   1.013   0.000   0.000   83.89   14.50    1.18   13.32    0.00    0.00   0.835   0.100   0.017   0.021   0.015   0.008   0.005   0.003   0.003   0.006   0.032
 1981 181    17  19.90  29.00  15.60 -99.000   5.176   0.421   4.753 -99.000 -99.000 -99.000   1.495   0.421   1.074   0.000   0.000   89.06   16.00    1.60   14.40    0.00    0.00   0.898   0.099   0.016   0.021   0.015   0.008   0.005   0.003   0.003   0.006   0.042
 1981 182    18  13.30  24.80  16.10 -99.000   3.280   0.330   2.948 -99.000 -99.000 -99.000   1.298   0.330   0.968   0.000   0.000   92.34   17.30    1.93   15.36    0.00    0.00   0.793   0.098   0.016   0.021   0.015   0.008   0.005   0.003   0.003   0.006   0.033
 1981 183    19  16.80  25.80  15.30 -99.000   4.138   0.487   3.648 -99.000 -99.000 -99.000   1.301   0.420   0.881   0.000   0.000   96.48   18.60    2.35   16.25    0.00    0.00   0.707   0.097   0.016   0.021   0.014   0.008   0.005   0.003   0.003   0.006   0.042
 1981 184    20  22.10  28.20  15.50 -99.000   5.579   0.714   4.860 -99.000 -99.000 -99.000   1.407   0.406   1.001   0.000   0.000  102.06   20.01    2.76   17.25    0.00    0.00   0.827   0.097   0.016   0.021   0.014   0.008   0.005   0.003   0.003   0.006   0.041
 1981 185    21  21.10  27.30  15.40 -99.000   5.338   0.718   4.616 -99.000 -99.000 -99.000   5.334   0.718   4.616   0.000   0.000  107.40   25.34    3.48   21.86    0.00    0.00   0.889   0.534   0.168   0.400   0.452   0.367   0.313   0.272   0.307   0.915   0.072
 1981 186    22  19.60  26.60  15.90 -99.000   4.928   0.786   4.138 -99.000 -99.000 -99.000   4.924   0.786   4.138   0.000   0.000  112.32   30.26    4.26   26.00    0.00    0.00   0.765   0.496   0.149   0.358   0.406   0.331   0.282   0.246   0.277   0.828   0.079
 1981 187    23  21.60  28.30  16.10 -99.000   5.490   1.042   4.443 -99.000 -99.000 -99.000   2.092   1.042   1.050   0.000   0.000  117.81   32.36    5.30   27.05    0.00    0.00   0.875   0.101   0.015   0.020   0.014   0.008   0.005   0.003   0.003   0.006   0.104
 1981 188    24  22.60  29.80  14.50 -99.000   5.711   1.279   4.425 -99.000 -99.000 -99.000   2.203   1.279   0.924   0.000   0.000  123.52   34.56    6.58   27.98    0.00    0.00   0.752   0.098   0.015   0.020   0.014   0.008   0.005   0.003   0.003   0.006   0.128
 1981 189    25  19.70  27.20  16.40 -99.000   4.863   1.217   3.639 -99.000 -99.000 -99.000   1.915   1.092   0.823   0.000   0.000  128.39   36.47    7.68   28.80    0.00    0.00   0.656   0.094   0.015   0.020   0.014   0.008   0.005   0.003   0.003   0.006   0.109
 1981 190    26  15.90  24.10  15.40 -99.000   3.732   1.011   2.715 -99.000 -99.000 -99.000   1.763   1.011   0.752   0.000   0.000  132.12   38.24    8.69   29.55    0.00    0.00   0.589   0.090   0.014   0.020   0.014   0.008   0.005   0.003   0.003   0.006   0.101
 1981 191    27  17.50  24.40  14.40 -99.000   4.067   1.187   2.873 -99.000 -99.000 -99.000   2.127   1.091   1.036   0.000   0.000  136.19   40.36    9.78   30.59    0.00    0.00   0.867   0.096   0.014   0.020   0.014   0.008   0.005   0.003   0.003   0.006   0.109
 1981 192    28  15.20  25.10  15.30 -99.000   3.660   1.130   2.523 -99.000 -99.000 -99.000   3.653   1.130   2.523   0.000   0.000  139.85   44.02   10.91   33.11    0.00    0.00   0.553   0.326   0.097   0.191   0.231   0.189   0.161   0.141   0.159   0.475   0.113
 1981 193    29  15.30  25.20  15.30 -99.000   3.681   1.263   2.410 -99.000 -99.000 -99.000   3.674   1.263   2.410   0.000   0.000  143.53   47.69   12.17   35.52    0.00    0.00   0.517   0.355   0.117   0.209   0.210   0.169   0.143   0.125   0.141   0.423   0.126
 1981 194    30  22.20  27.60  15.70 -99.000   5.477   2.071   3.394 -99.000 -99.000 -99.000   5.465   2.071   3.394   0.000   0.000  149.00   53.16   14.24   38.91    0.00    0.00   0.631   0.475   0.161   0.348   0.312   0.249   0.210   0.183   0.207   0.618   0.207
 1981 195    31  18.60  26.90  14.80 -99.000   4.447   1.862   2.575 -99.000 -99.000 -99.000   4.437   1.862   2.575   0.000   0.000  153.45   57.59   16.10   41.49    0.00    0.00   0.445   0.341   0.116   0.269   0.243   0.196   0.167   0.145   0.164   0.488   0.186
 1981 196    32  18.20  25.90  15.50 -99.000   4.287   1.945   2.332 -99.000 -99.000 -99.000   3.032   1.945   1.087   0.000   0.000  157.74   60.63   18.05   42.58    0.00    0.00   0.885   0.117   0.020   0.026   0.015   0.008   0.005   0.003   0.003   0.006   0.194
 1981 197    33  20.20  26.40  14.00 -99.000   4.688   2.288   2.387 -99.000 -99.000 -99.000   3.249   2.288   0.962   0.000   0.000  162.43   63.87   20.34   43.54    0.00    0.00   0.767   0.111   0.019   0.026   0.015   0.008   0.005   0.003   0.003   0.006   0.229
 1981 198    34  17.80  25.80  15.10 -99.000   4.104   2.154   1.937 -99.000 -99.000 -99.000   3.269   2.154   1.116   0.000   0.000  166.53   67.14   22.49   44.65    0.00    0.00   0.921   0.111   0.018   0.026   0.015   0.008   0.005   0.003   0.003   0.006   0.215
 1981 199    35  19.50  25.90  14.70 -99.000   4.505   2.522   1.969 -99.000 -99.000 -99.000   4.491   2.522   1.969   0.000   0.000  171.04   71.64   25.01   46.62    0.00    0.00   0.410   0.251   0.080   0.192   0.179   0.145   0.123   0.107   0.121   0.360   0.252
 1981 200    36  18.40  25.20  15.60 -99.000   4.237   2.507   1.715 -99.000 -99.000 -99.000   4.222   2.507   1.715   0.000   0.000  175.27   75.86   27.52   48.34    0.00    0.00   0.324   0.223   0.075   0.173   0.159   0.129   0.109   0.095   0.107   0.320   0.251
 1981 201    37  16.70  24.60  16.00 -99.000   3.790   2.356   1.420 -99.000 -99.000 -99.000   3.777   2.356   1.420   0.000   0.000  179.06   79.63   29.88   49.76    0.00    0.00   0.286   0.181   0.061   0.143   0.130   0.105   0.089   0.077   0.087   0.260   0.236
 1981 202    38  19.10  25.80  16.20 -99.000   4.405   2.860   1.529 -99.000 -99.000 -99.000   4.389   2.860   1.529   0.000   0.000  183.47   84.02   32.74   51.29    0.00    0.00   0.290   0.199   0.067   0.156   0.141   0.115   0.097   0.085   0.095   0.283   0.286
 1981 203    39  16.50  24.40  14.90 -99.000   3.669   2.480   1.175 -99.000 -99.000 -99.000   3.655   2.480   1.175   0.000   0.000  187.14   87.68   35.22   52.46    0.00    0.00   0.208   0.148   0.050   0.122   0.112   0.091   0.077   0.067   0.076   0.224   0.248
 1981 204    40  19.70  25.40  14.60 -99.000   4.401   3.073   1.310 -99.000 -99.000 -99.000   4.383   3.073   1.310   0.000   0.000  191.54   92.06   38.29   53.77    0.00    0.00   0.254   0.177   0.060   0.131   0.120   0.097   0.082   0.071   0.080   0.238   0.307
 1981 205    41  21.50  25.80  14.90 -99.000   4.844   3.486   1.338 -99.000 -99.000 -99.000   4.824   3.486   1.338   0.000   0.000  196.38   96.88   41.77   55.11    0.00    0.00   0.280   0.193   0.067   0.132   0.118   0.094   0.080   0.069   0.077   0.228   0.349
 1981 206    42  18.60  24.80  15.20 -99.000   4.135   3.060   1.058 -99.000 -99.000 -99.000   4.117   3.060   1.058   0.000   0.000  200.52  101.00   44.83   56.17    0.00    0.00   0.218   0.152   0.054   0.107   0.094   0.075   0.063   0.055   0.061   0.178   0.306
 1981 207    43  13.70  21.80  15.00 -99.000   2.922   2.215   0.693 -99.000 -99.000 -99.000   2.908   2.215   0.693   0.000   0.000  203.44  103.91   47.05   56.86    0.00    0.00   0.142   0.099   0.035   0.071   0.062   0.050   0.042   0.036   0.040   0.117   0.221
 1981 208    44  19.70  24.40  14.40 -99.000   4.306   3.329   0.958 -99.000 -99.000 -99.000   4.286   3.329   0.958   0.000   0.000  207.74  108.20   50.38   57.82    0.00    0.00   0.197   0.131   0.049   0.098   0.087   0.070   0.059   0.050   0.056   0.162   0.333
 1981 209    45  19.20  24.60  15.10 -99.000   4.219   3.323   0.877 -99.000 -99.000 -99.000   4.199   3.323   0.877   0.000   0.000  211.96  112.40   53.70   58.70    0.00    0.00   0.181   0.116   0.044   0.088   0.079   0.064   0.054   0.047   0.052   0.152   0.332
 1981 210    46  13.90  23.70  15.30 -99.000   3.019   2.415   0.590 -99.000 -99.000 -99.000   3.005   2.415   0.590   0.000   0.000  214.98  115.40   56.11   59.29    0.00    0.00   0.121   0.079   0.029   0.059   0.053   0.043   0.037   0.032   0.035   0.102   0.241
 1981 211    47  15.40  24.40  15.00 -99.000   3.361   2.718   0.627 -99.000 -99.000 -99.000   3.345   2.718   0.627   0.000   0.000  218.34  118.75   58.83   59.91    0.00    0.00   0.127   0.089   0.031   0.064   0.056   0.045   0.038   0.033   0.036   0.107   0.272
 1981 212    48  14.70  23.10  14.60 -99.000   3.143   2.565   0.562 -99.000 -99.000 -99.000   3.127   2.565   0.562   0.000   0.000  221.48  121.87   61.40   60.48    0.00    0.00   0.113   0.076   0.028   0.058   0.051   0.041   0.035   0.030   0.033   0.097   0.256
 1981 213    49  20.40  26.00  13.40 -99.000   4.469   3.671   0.776 -99.000 -99.000 -99.000   4.447   3.671   0.776   0.000   0.000  225.95  126.32   65.07   61.25    0.00    0.00   0.156   0.102   0.039   0.078   0.070   0.057   0.049   0.042   0.046   0.136   0.367
 1981 214    50  13.70  24.60  15.70 -99.000   3.003   2.482   0.507 -99.000 -99.000 -99.000   2.989   2.482   0.507   0.000   0.000  228.96  129.31   67.55   61.76    0.00    0.00   0.101   0.069   0.025   0.053   0.046   0.037   0.032   0.027   0.030   0.088   0.248
 1981 215    51  20.00  25.60  14.70 -99.000   4.399   3.657   0.721 -99.000 -99.000 -99.000   4.378   3.657   0.721   0.000   0.000  233.36  133.69   71.21   62.48    0.00    0.00   0.132   0.098   0.033   0.076   0.067   0.054   0.046   0.040   0.044   0.131   0.366
 1981 216    52  18.30  24.60  15.80 -99.000   4.001   3.347   0.634 -99.000 -99.000 -99.000   3.981   3.347   0.634   0.000   0.000  237.36  137.67   74.55   63.11    0.00    0.00   0.111   0.083   0.028   0.067   0.060   0.049   0.041   0.036   0.040   0.120   0.335
 1981 217    53  19.70  24.80  15.70 -99.000   4.308   3.615   0.672 -99.000 -99.000 -99.000   4.288   3.615   0.672   0.000   0.000  241.66  141.96   78.17   63.79    0.00    0.00   0.114   0.086   0.029   0.070   0.064   0.052   0.044   0.039   0.044   0.130   0.362
 1981 218    54  20.50  25.10  15.20 -99.000   4.479   3.763   0.694 -99.000 -99.000 -99.000   4.457   3.763   0.694   0.000   0.000  246.14  146.41   81.93   64.48    0.00    0.00   0.132   0.094   0.032   0.070   0.063   0.051   0.044   0.038   0.043   0.128   0.376
 1981 219    55  23.00  25.30  14.30 -99.000   5.017   4.212   0.780 -99.000 -99.000 -99.000   4.992   4.212   0.780   0.000   0.000  251.16  151.41   86.14   65.26    0.00    0.00   0.146   0.106   0.036   0.079   0.071   0.058   0.049   0.043   0.048   0.144   0.421
 1981 220    56  22.20  25.70  13.50 -99.000   4.826   4.044   0.759 -99.000 -99.000 -99.000   4.803   4.044   0.759   0.000   0.000  255.99  156.21   90.19   66.02    0.00    0.00   0.134   0.100   0.034   0.078   0.070   0.058   0.050   0.043   0.049   0.145   0.404
 1981 221    57  22.30  26.20  15.60 -99.000   4.957   4.142   0.792 -99.000 -99.000 -99.000   4.934   4.142   0.792   0.000   0.000  260.94  161.14   94.33   66.81    0.00    0.00   0.134   0.101   0.034   0.082   0.074   0.061   0.053   0.046   0.052   0.155   0.414
 1981 222    58  18.30  25.20  15.30 -99.000   4.010   3.340   0.651 -99.000 -99.000 -99.000   3.991   3.340   0.651   0.000   0.000  264.95  165.13   97.67   67.46    0.00    0.00   0.106   0.080   0.027   0.067   0.062   0.051   0.045   0.039   0.044   0.131   0.334
 1981 223    59  16.90  25.20  15.90 -99.000   3.721   3.087   0.617 -99.000 -99.000 -99.000   3.704   3.087   0.617   0.000   0.000  268.68  168.84  100.76   68.08    0.00    0.00   0.111   0.074   0.024   0.061   0.057   0.048   0.042   0.036   0.041   0.123   0.309
 1981 224    60  13.10  23.20  16.30 -99.000   2.833   2.340   0.479 -99.000 -99.000 -99.000   2.819   2.340   0.479   0.000   0.000  271.51  171.66  103.10   68.56    0.00    0.00   0.101   0.062   0.019   0.044   0.042   0.035   0.031   0.027   0.030   0.090   0.234
 1981 225    61  21.00  24.60  15.10 -99.000   4.586   3.770   0.795 -99.000 -99.000 -99.000   4.565   3.770   0.795   0.000   0.000  276.09  176.22  106.87   69.35    0.00    0.00   0.173   0.111   0.038   0.074   0.065   0.054   0.048   0.042   0.047   0.142   0.377
 1981 226    62  21.00  25.30  15.40 -99.000   4.639   3.794   0.824 -99.000 -99.000 -99.000   4.617   3.794   0.824   0.000   0.000  280.73  180.84  110.66   70.18    0.00    0.00   0.174   0.114   0.042   0.081   0.069   0.056   0.050   0.043   0.049   0.146   0.379
 1981 227    63  20.40  25.30  14.60 -99.000   4.479   3.644   0.814 -99.000 -99.000 -99.000   4.457   3.644   0.814   0.000   0.000  285.21  185.30  114.30   70.99    0.00    0.00   0.152   0.108   0.038   0.084   0.074   0.059   0.052   0.045   0.051   0.152   0.364
 1981 228    64  14.40  23.50  15.30 -99.000   3.107   2.514   0.578 -99.000 -99.000 -99.000   3.092   2.514   0.578   0.000   0.000  288.32  188.39  116.82   71.57    0.00    0.00   0.109   0.075   0.026   0.059   0.053   0.042   0.037   0.032   0.036   0.108   0.251
 1981 229    65  21.90  25.20  14.80 -99.000   4.813   3.873   0.918 -99.000 -99.000 -99.000   4.790   3.873   0.918   0.000   0.000  293.13  193.18  120.69   72.49    0.00    0.00   0.182   0.120   0.041   0.092   0.083   0.066   0.058   0.050   0.057   0.169   0.387
 1981 230    66  25.00  27.30  13.50 -99.000   5.580   4.466   1.088 -99.000 -99.000 -99.000   5.554   4.466   1.088   0.000   0.000  298.71  198.73  125.16   73.58    0.00    0.00   0.226   0.142   0.049   0.108   0.097   0.076   0.067   0.059   0.066   0.198   0.447
 1981 231    67  25.70  26.60  13.80 -99.000   5.714   4.550   1.138 -99.000 -99.000 -99.000   5.687   4.550   1.138   0.000   0.000  304.42  204.42  129.71   74.71    0.00    0.00   0.216   0.148   0.051   0.116   0.105   0.081   0.073   0.063   0.071   0.213   0.455
 1981 232    68  21.80  25.10  15.10 -99.000   4.801   3.804   0.976 -99.000 -99.000 -99.000   4.780   3.804   0.976   0.000   0.000  309.23  209.20  133.51   75.69    0.00    0.00   0.187   0.125   0.042   0.098   0.090   0.070   0.063   0.055   0.062   0.184   0.380
 1981 233    69  22.10  24.50  14.00 -99.000   4.798   3.781   0.994 -99.000 -99.000 -99.000   4.775   3.781   0.994   0.000   0.000  314.02  213.97  137.29   76.68    0.00    0.00   0.183   0.130   0.044   0.098   0.093   0.071   0.065   0.057   0.064   0.191   0.378
 1981 234    70  17.60  24.20  15.10 -99.000   3.838   3.008   0.812 -99.000 -99.000 -99.000   3.820   3.008   0.812   0.000   0.000  317.86  217.79  140.30   77.50    0.00    0.00   0.160   0.115   0.039   0.079   0.072   0.055   0.050   0.044   0.050   0.148   0.301
 1981 235    71  19.30  24.60  16.00 -99.000   4.281   3.321   0.941 -99.000 -99.000 -99.000   4.262   3.321   0.941   0.000   0.000  322.14  222.06  143.62   78.44    0.00    0.00   0.178   0.131   0.045   0.095   0.085   0.066   0.059   0.051   0.058   0.173   0.332
 1981 236    72  17.90  24.00  15.30 -99.000   3.915   3.004   0.893 -99.000 -99.000 -99.000   3.897   3.004   0.893   0.000   0.000  326.06  225.95  146.62   79.33    0.00    0.00   0.158   0.119   0.040   0.091   0.084   0.067   0.058   0.050   0.057   0.168   0.300
 1981 237    73  19.80  24.90  15.50 -99.000   4.385   3.330   1.036 -99.000 -99.000 -99.000   4.366   3.330   1.036   0.000   0.000  330.44  230.32  149.95   80.37    0.00    0.00   0.851   0.108   0.018   0.023   0.013   0.007   0.004   0.003   0.003   0.005   0.333
 1981 238    74  18.70  25.00  15.80 -99.000   4.156   3.122   1.017 -99.000 -99.000 -99.000   4.138   3.122   1.017   0.000   0.000  334.60  234.46  153.08   81.38    0.00    0.00   0.193   0.135   0.046   0.101   0.093   0.074   0.065   0.057   0.064   0.189   0.312
 1981 239    75  21.10  25.30  14.90 -99.000   4.707   3.496   1.191 -99.000 -99.000 -99.000   4.687   3.496   1.191   0.000   0.000  339.31  239.14  156.57   82.57    0.00    0.00   0.227   0.158   0.053   0.120   0.109   0.087   0.076   0.066   0.074   0.220   0.350
 1981 240    76  22.90  26.10  14.30 -99.000   5.123   3.763   1.339 -99.000 -99.000 -99.000   5.102   3.763   1.339   0.000   0.000  344.43  244.25  160.33   83.91    0.00    0.00   0.238   0.175   0.059   0.136   0.126   0.102   0.087   0.076   0.086   0.254   0.376
 1981 241    77  22.40  25.80  14.20 -99.000   4.989   3.623   1.345 -99.000 -99.000 -99.000   4.744   3.623   1.121   0.000   0.000  349.42  248.99  163.96   85.03    0.00    0.00   0.923   0.116   0.019   0.025   0.014   0.008   0.005   0.003   0.003   0.006   0.362
 1981 242    78  19.50  25.00  15.30 -99.000   4.338   3.115   1.205 -99.000 -99.000 -99.000   4.320   3.115   1.205   0.000   0.000  353.76  253.31  167.07   86.24    0.00    0.00   0.228   0.162   0.055   0.117   0.109   0.088   0.077   0.067   0.076   0.225   0.311
 1981 243    79  17.70  24.20  16.40 -99.000   3.968   2.817   1.135 -99.000 -99.000 -99.000   3.952   2.817   1.135   0.000   0.000  357.72  257.26  169.89   87.37    0.00    0.00   0.217   0.153   0.052   0.113   0.103   0.082   0.072   0.063   0.071   0.210   0.282
 1981 244    80  16.50  23.40  14.50 -99.000   3.599   2.525   1.059 -99.000 -99.000 -99.000   3.584   2.525   1.059   0.000   0.000  361.32  260.85  172.41   88.43    0.00    0.00   0.189   0.141   0.047   0.109   0.100   0.078   0.069   0.060   0.067   0.200   0.252
 1981 245    81  27.40  26.80  13.80 -99.000   6.192   4.295   1.872 -99.000 -99.000 -99.000   5.441   4.295   1.146   0.000   0.000  367.52  266.29  176.71   89.58    0.00    0.00   0.944   0.119   0.019   0.026   0.014   0.008   0.005   0.003   0.003   0.006   0.430
 1981 246    82  20.30  25.40  14.40 -99.000   4.529   3.106   1.405 -99.000 -99.000 -99.000   4.113   3.106   1.007   0.000   0.000  372.04  270.40  179.82   90.59    0.00    0.00   0.813   0.113   0.019   0.025   0.014   0.007   0.005   0.003   0.003   0.006   0.311
 1981 247    83  22.20  26.00  13.90 -99.000   4.966   3.367   1.579 -99.000 -99.000 -99.000   4.946   3.367   1.579   0.000   0.000  377.01  275.35  183.18   92.16    0.00    0.00   0.288   0.204   0.067   0.152   0.148   0.115   0.105   0.091   0.103   0.306   0.337
 1981 248    84  19.00  24.30  14.40 -99.000   4.223   2.831   1.375 -99.000 -99.000 -99.000   4.207   2.831   1.375   0.000   0.000  381.23  279.55  186.01   93.54    0.00    0.00   0.303   0.184   0.061   0.123   0.119   0.092   0.085   0.074   0.084   0.249   0.283
 1981 249    85  20.80  25.20  14.80 -99.000   4.699   3.116   1.565 -99.000 -99.000 -99.000   4.681   3.116   1.565   0.000   0.000  385.93  284.23  189.13   95.10    0.00    0.00   0.303   0.212   0.072   0.154   0.139   0.107   0.100   0.087   0.098   0.292   0.312
 1981 250    86  20.10  25.70  14.70 -99.000   4.551   2.983   1.550 -99.000 -99.000 -99.000   4.533   2.983   1.550   0.000   0.000  390.48  288.77  192.11   96.66    0.00    0.00   0.314   0.217   0.075   0.156   0.136   0.101   0.095   0.083   0.094   0.279   0.298
 1981 251    87  23.80  26.50  15.00 -99.000   5.484   3.554   1.910 -99.000 -99.000 -99.000   5.464   3.554   1.910   0.000   0.000  395.97  294.23  195.67   98.57    0.00    0.00   0.363   0.263   0.091   0.197   0.175   0.133   0.119   0.104   0.117   0.349   0.355
 1981 252    88  22.70  26.30  15.70 -99.000   5.229   3.350   1.860 -99.000 -99.000 -99.000   5.210   3.350   1.860   0.000   0.000  401.20  299.44  199.02  100.43    0.00    0.00   0.330   0.247   0.084   0.192   0.175   0.140   0.119   0.104   0.117   0.350   0.335
 1981 253    89  20.50  25.40  15.80 -99.000   4.673   2.960   1.697 -99.000 -99.000 -99.000   4.074   2.960   1.114   0.000   0.000  405.87  303.52  201.98  101.54    0.00    0.00   0.914   0.117   0.020   0.025   0.014   0.008   0.005   0.003   0.003   0.005   0.296
 1981 254    90  17.30  24.40  15.30 -99.000   3.877   2.427   1.436 -99.000 -99.000 -99.000   3.863   2.427   1.436   0.000   0.000  409.75  307.38  204.40  102.98    0.00    0.00   0.260   0.187   0.063   0.143   0.134   0.108   0.093   0.081   0.092   0.274   0.243
 1981 255    91  21.30  24.80  14.50 -99.000   4.802   2.972   1.813 -99.000 -99.000 -99.000   4.785   2.972   1.813   0.000   0.000  414.55  312.16  207.38  104.79    0.00    0.00   0.339   0.240   0.080   0.176   0.167   0.134   0.117   0.102   0.115   0.343   0.297
 1981 256    92  18.10  23.80  15.40 -99.000   4.053   2.480   1.559 -99.000 -99.000 -99.000   4.038   2.480   1.559   0.000   0.000  418.60  316.20  209.86  106.35    0.00    0.00   0.281   0.203   0.069   0.150   0.145   0.116   0.102   0.090   0.101   0.302   0.248
 1981 257    93  14.80  23.30  15.40 -99.000   3.294   1.993   1.290 -99.000 -99.000 -99.000   3.283   1.993   1.290   0.000   0.000  421.90  319.49  211.85  107.64    0.00    0.00   0.247   0.169   0.056   0.119   0.118   0.094   0.084   0.073   0.083   0.247   0.199
 1981 258    94  20.10  24.90  16.10 -99.000   4.611   2.758   1.837 -99.000 -99.000 -99.000   4.596   2.758   1.837   0.000   0.000  426.51  324.08  214.61  109.47    0.00    0.00   0.395   0.249   0.083   0.163   0.159   0.127   0.114   0.100   0.113   0.336   0.276
 1981 259    95  20.70  25.30  15.60 -99.000   4.775   2.824   1.935 -99.000 -99.000 -99.000   4.759   2.824   1.935   0.000   0.000  431.28  328.84  217.43  111.41    0.00    0.00   0.432   0.267   0.093   0.175   0.161   0.129   0.117   0.102   0.115   0.344   0.282
 1981 260    96  22.50  26.00  13.80 -99.000   5.165   3.020   2.127 -99.000 -99.000 -99.000   5.147   3.020   2.127   0.000   0.000  436.45  333.99  220.45  113.54    0.00    0.00   0.415   0.289   0.100   0.214   0.185   0.146   0.134   0.117   0.132   0.396   0.302
 1981 261    97  17.30  24.30  15.30 -99.000   3.921   2.267   1.641 -99.000 -99.000 -99.000   3.908   2.267   1.641   0.000   0.000  440.37  337.89  222.72  115.18    0.00    0.00   0.331   0.220   0.076   0.169   0.140   0.110   0.102   0.089   0.101   0.302   0.227
 1981 262    98  18.90  24.10  15.40 -99.000   4.298   2.458   1.827 -99.000 -99.000 -99.000   4.284   2.458   1.827   0.000   0.000  444.67  342.18  225.18  117.00    0.00    0.00   0.387   0.265   0.090   0.190   0.156   0.117   0.107   0.093   0.106   0.316   0.246
 1981 263    99  22.90  25.00  15.10 -99.000   5.268   2.979   2.272 -99.000 -99.000 -99.000   5.251   2.979   2.272   0.000   0.000  449.94  347.43  228.15  119.28    0.00    0.00   0.428   0.321   0.109   0.240   0.210   0.160   0.140   0.122   0.137   0.405   0.298
 1981 264   100  23.80  26.30  16.50 -99.000   5.595   3.129   2.448 -99.000 -99.000 -99.000   5.578   3.129   2.448   0.000   0.000  455.53  353.01  231.28  121.72    0.00    0.00   0.469   0.334   0.116   0.252   0.225   0.181   0.154   0.134   0.149   0.434   0.313
 1981 265   101  18.40  25.10  15.00 -99.000   4.230   2.339   1.877 -99.000 -99.000 -99.000   4.216   2.339   1.877   0.000   0.000  459.76  357.22  233.62  123.60    0.00    0.00   0.387   0.249   0.089   0.189   0.170   0.137   0.116   0.101   0.112   0.327   0.234
 1981 266   102  21.40  25.70  14.70 -99.000   4.962   2.714   2.233 -99.000 -99.000 -99.000   4.947   2.714   2.233   0.000   0.000  464.72  362.17  236.34  125.83    0.00    0.00   0.422   0.294   0.102   0.230   0.208   0.168   0.143   0.124   0.139   0.403   0.271
 1981 267   103  23.20  26.50  13.00 -99.000   5.334   2.885   2.432 -99.000 -99.000 -99.000   5.317   2.885   2.432   0.000   0.000  470.06  367.49  239.22  128.27    0.00    0.00   0.432   0.318   0.110   0.249   0.230   0.186   0.160   0.139   0.157   0.451   0.289
 1981 268   104  22.10  25.80  13.70 -99.000   5.060   2.707   2.337 -99.000 -99.000 -99.000   3.813   2.707   1.106   0.000   0.000  475.12  371.30  241.93  129.37    0.00    0.00   0.907   0.116   0.019   0.025   0.014   0.008   0.005   0.003   0.003   0.005   0.271
 1981 269   105  14.50  22.80  15.10 -99.000   3.232   1.710   1.511 -99.000 -99.000 -99.000   3.221   1.710   1.511   0.000   0.000  478.35  374.52  243.64  130.88    0.00    0.00   0.280   0.197   0.067   0.147   0.141   0.114   0.100   0.087   0.098   0.282   0.171
 1981 270   106  20.60  24.10  14.70 -99.000   4.699   2.460   2.225 -99.000 -99.000 -99.000   4.685   2.460   2.225   0.000   0.000  483.05  379.21  246.10  133.11    0.00    0.00   0.423   0.295   0.099   0.215   0.204   0.164   0.145   0.127   0.143   0.410   0.246
 1981 271   107  20.80  25.20  15.40 -99.000   4.816   2.494   2.308 -99.000 -99.000 -99.000   4.802   2.494   2.308   0.000   0.000  487.86  384.01  248.59  135.42    0.00    0.00   0.416   0.303   0.102   0.226   0.214   0.172   0.154   0.134   0.151   0.435   0.249