*Soil Inorganic Nitrogen daily output file

*DSSAT Cropping System Model Ver. 4.7.5.008 -release  MAY 04, 2021 17:13:26

*RUN   1        : ET-SIMAGRI                MZCER047 ETMZcccc    1
 MODEL          : MZCER047 - Maize
 EXPERIMENT     : ETMZcccc SN MELKSSAL
 DATA PATH      : C:\IRI\Python_Dash\ET_DSS_hist\TEST\
 TREATMENT  1   : ET-SIMAGRI                MZCER047
  
!                                                                                                                              NO3 (ppm) at soil dep. (cm):                                                    NH4 (ppm) at soil dep. (cm):                                                    Total Inorganic N @dep(ppm):
!                                                                                                                               0-5    5-15   15-20   20-35   35-50   50-65   65-81   81-97  97-118 118-200     0-5    5-15   15-20   20-35   35-50   50-65   65-81   81-97  97-118 118-200     0-5    5-15   15-20   20-35   35-50   50-65   65-81   81-97  97-118 118-200
@YEAR DOY   DAS  NAPC  NI#M    NIAD    NITD    NHTD    NMNC    NITC    NDNC    NIMC    AMLC   NNMNC    NUCM    NLCC    TDFC    NI1D    NI2D    NI3D    NI4D    NI5D    NI6D    NI7D    NI8D    NI9D    NI10    NH1D    NH2D    NH3D    NH4D    NH5D    NH6D    NH7D    NH8D    NH9D    NH10    NT1D    NT2D    NT3D    NT4D    NT5D    NT6D    NT7D    NT8D    NT9D    NT10    
 1981 164     0     0     0    42.0    39.6     2.4    0.00    0.00    0.00    0.00    0.00    0.00    0.00    0.00    0.00   15.00    15.0    15.0    2.00    0.00    0.00    0.00    0.00    0.00    0.00    0.10    0.10    0.10    0.10    0.10    0.10    0.10    0.10    0.10    0.10   15.10   15.10   15.10    2.10    0.10    0.10    0.10    0.10    0.10    0.10
 1981 165     1     0     0    43.1    40.9     2.2    1.10    1.32    0.00    0.00    0.00    1.10    0.00    0.00    0.00   15.07    15.1    15.1    2.06    0.06    0.06    0.06    0.05    0.05    0.05    0.12    0.12    0.12    0.11    0.10    0.10    0.09    0.09    0.08    0.08   15.19   15.19   15.19    2.17    0.16    0.16    0.15    0.15    0.13    0.13
 1981 166     2    50     1    53.5    42.4    11.2    2.19    2.53    0.00    0.00   36.85    2.19    0.00    0.00    0.00   15.83    15.1    15.1    2.12    0.12    0.12    0.11    0.10    0.10    0.09   15.24    0.13    0.13    0.11    0.10    0.10    0.09    0.09    0.07    0.07   31.07   15.21   15.18    2.23    0.22    0.22    0.19    0.19    0.17    0.17
 1981 167     3    50     1    54.4    49.5     5.0    3.28    9.53    0.00    0.00   39.36    3.28    0.00    0.00    0.00   26.05    15.1    15.0    2.19    0.18    0.17    0.15    0.15    0.13    0.13    5.01    0.14    0.14    0.11    0.10    0.10    0.08    0.09    0.07    0.07   31.06   15.23   15.18    2.29    0.28    0.28    0.24    0.24    0.20    0.20
 1981 168     4    50     1    55.6    52.5     3.0    4.37   12.58    0.00    0.00   40.08    4.37    0.00    0.00    0.00   29.65    15.1    15.0    2.25    0.24    0.23    0.20    0.20    0.17    0.16    1.88    0.14    0.14    0.11    0.10    0.10    0.08    0.08    0.07    0.07   31.53   15.24   15.18    2.36    0.34    0.34    0.28    0.28    0.23    0.23
 1981 169     5    50     1    56.7    54.4     2.3    5.45   14.36    0.00    0.00   40.38    5.45    0.00    0.00    0.00   31.17    15.1    15.0    2.31    0.30    0.29    0.25    0.24    0.20    0.20    0.74    0.14    0.14    0.11    0.10    0.10    0.08    0.08    0.06    0.07   31.91   15.26   15.17    2.42    0.40    0.39    0.33    0.33    0.27    0.26
 1981 170     6    50     1    57.9    55.7     2.1    6.55   15.72    0.00    0.00   40.47    6.55    0.00    0.00    0.00   31.92    15.1    15.0    2.38    0.36    0.35    0.29    0.29    0.24    0.23    0.42    0.14    0.14    0.11    0.10    0.10    0.08    0.08    0.06    0.06   32.34   15.28   15.17    2.49    0.46    0.45    0.38    0.37    0.30    0.30
 1981 171     7    50     1    59.0    56.9     2.0    7.65   16.94    0.00    0.00   40.52    7.65    0.00    0.00    0.00   32.45    15.2    15.0    2.44    0.42    0.41    0.34    0.33    0.27    0.26    0.25    0.14    0.14    0.11    0.10    0.10    0.08    0.08    0.06    0.06   32.70   15.30   15.17    2.55    0.52    0.51    0.42    0.42    0.33    0.33
 1981 172     8    50     1    60.1    58.1     2.0    8.75   18.07    0.00    0.00   40.56    8.75    0.00    0.00    0.00   32.85    15.2    15.0    2.50    0.48    0.47    0.39    0.38    0.30    0.30    0.18    0.14    0.14    0.11    0.10    0.10    0.08    0.08    0.06    0.06   33.03   15.32   15.17    2.61    0.58    0.57    0.47    0.46    0.37    0.36
 1981 173     9    50     1    61.1    59.1     2.0    9.82   19.14    0.00    0.00   40.59    9.82    0.00    0.00    0.00   33.20    15.2    15.0    2.56    0.54    0.53    0.43    0.42    0.34    0.33    0.14    0.14    0.14    0.11    0.10    0.10    0.08    0.08    0.06    0.06   33.34   15.33   15.16    2.67    0.64    0.63    0.51    0.51    0.40    0.39
 1981 174    10    50     1    62.2    60.2     2.0   10.90   20.20    0.00    0.00   40.62   10.90    0.00    0.00    0.00   33.51    15.2    15.0    2.63    0.60    0.58    0.48    0.47    0.37    0.36    0.12    0.14    0.14    0.11    0.10    0.10    0.08    0.08    0.06    0.06   33.63   15.35   15.16    2.74    0.70    0.69    0.56    0.55    0.43    0.42
 1981 175    11    50     1    63.2    61.2     2.0   11.97   21.25    0.00    0.00   40.65   11.97    0.00    0.00    0.00   33.82    15.2    15.0    2.69    0.66    0.64    0.52    0.51    0.40    0.39    0.11    0.14    0.14    0.11    0.10    0.10    0.08    0.08    0.06    0.06   33.93   15.36   15.16    2.80    0.76    0.74    0.60    0.59    0.47    0.46
 1981 176    12    50     1    64.2    62.3     2.0   13.03   22.29    0.00    0.00   40.68   13.03    0.00    0.00    0.00   31.03    16.8    15.0    2.75    0.71    0.70    0.56    0.55    0.43    0.42    0.10    0.14    0.14    0.11    0.10    0.10    0.08    0.08    0.06    0.06   31.13   16.92   15.15    2.86    0.82    0.80    0.65    0.64    0.50    0.49
 1981 177    13    50     1    65.3    63.3     1.9   14.10   23.36    0.00    0.00   40.71   14.10    0.00    0.00    0.00   31.36    16.8    15.0    2.81    0.77    0.76    0.61    0.60    0.47    0.46    0.08    0.14    0.14    0.11    0.10    0.10    0.08    0.08    0.06    0.06   31.43   16.93   15.15    2.92    0.87    0.86    0.69    0.68    0.53    0.52
 1981 178    14    50     1    66.3    64.4     1.9   15.19   24.43    0.00    0.00   40.74   15.19    0.00    0.00    0.00   31.67    16.8    15.0    2.87    0.83    0.81    0.66    0.64    0.50    0.49    0.07    0.14    0.14    0.11    0.10    0.10    0.08    0.08    0.06    0.06   31.74   16.93   15.15    2.98    0.93    0.92    0.74    0.73    0.56    0.55
 1981 179    15    50     1    67.0    65.1     1.9   16.25   25.46    0.00    0.00   40.76   16.25    0.33    0.00    0.00   31.72    16.7    15.0    2.93    0.89    0.87    0.70    0.69    0.53    0.52    0.07    0.14    0.14    0.11    0.10    0.10    0.08    0.08    0.06    0.06   31.79   16.82   15.09    3.04    0.99    0.97    0.78    0.77    0.60    0.58
 1981 180    16    50     1    67.7    65.7     1.9   17.26   26.46    0.00    0.00   40.79   17.26    0.68    0.00    0.00   30.97    16.9    14.9    2.99    0.94    0.93    0.74    0.73    0.56    0.55    0.06    0.13    0.13    0.11    0.10    0.10    0.08    0.09    0.06    0.07   31.03   17.08   15.01    3.10    1.05    1.03    0.83    0.81    0.63    0.62
 1981 181    17    50     1    68.1    66.2     1.9   18.29   27.47    0.00    0.00   40.81   18.29    1.26    0.00    0.00   30.83    16.7    14.8    3.05    1.00    0.98    0.79    0.77    0.60    0.58    0.07    0.12    0.13    0.11    0.10    0.10    0.08    0.09    0.06    0.07   30.90   16.86   14.89    3.16    1.10    1.09    0.87    0.86    0.66    0.65
 1981 182    18    50     1    68.8    66.9     1.9   19.30   28.47    0.00    0.00   40.83   19.30    1.52    0.00    0.00   30.94    16.6    14.7    3.10    1.06    1.04    0.83    0.82    0.63    0.61    0.07    0.12    0.12    0.11    0.10    0.10    0.08    0.09    0.06    0.07   31.01   16.76   14.81    3.22    1.16    1.14    0.92    0.90    0.69    0.68
 1981 183    19    50     1    69.2    67.2     1.9   20.28   29.42    0.00    0.00   40.86   20.28    2.12    0.00    0.00   30.87    16.4    14.5    3.16    1.11    1.09    0.87    0.86    0.66    0.64    0.06    0.12    0.12    0.11    0.11    0.11    0.09    0.09    0.07    0.07   30.93   16.51   14.62    3.27    1.22    1.20    0.96    0.94    0.72    0.71
 1981 184    20    50     1    69.4    67.4     1.9   21.24   30.37    0.00    0.00   40.88   21.24    2.87    0.00    0.00   28.43    17.3    14.2    3.21    1.17    1.14    0.92    0.90    0.69    0.67    0.06    0.11    0.12    0.11    0.11    0.11    0.09    0.09    0.07    0.07   28.48   17.37   14.36    3.32    1.27    1.25    1.00    0.98    0.75    0.74
 1981 185    21    50     1    69.8    67.8     1.9   22.22   31.31    0.00    0.00   40.90   22.22    3.41    0.00    0.00   24.55    18.9    14.1    3.27    1.22    1.20    0.96    0.94    0.72    0.70    0.07    0.11    0.12    0.11    0.11    0.11    0.09    0.09    0.07    0.07   24.63   19.05   14.19    3.37    1.33    1.30    1.04    1.03    0.79    0.77
 1981 186    22    50     1    70.5    68.5     1.9   23.18   32.24    0.00    0.00   40.92   23.18    3.63    0.00    0.00   29.25    18.1    11.7    3.10    1.26    1.23    0.99    0.98    0.75    0.73    0.07    0.13    0.11    0.11    0.11    0.11    0.09    0.09    0.07    0.07   29.32   18.26   11.79    3.21    1.37    1.34    1.08    1.06    0.81    0.80
 1981 187    23    50     1    70.3    68.3     1.9   24.12   33.16    0.00    0.00   40.95   24.12    4.73    0.00    0.00   33.20    16.7     9.8    2.96    1.30    1.26    1.03    1.01    0.77    0.76    0.07    0.13    0.11    0.11    0.11    0.11    0.09    0.09    0.07    0.07   33.27   16.82    9.88    3.06    1.41    1.37    1.11    1.10    0.84    0.83
 1981 188    24    50     1    70.4    68.4     1.9   25.08   34.11    0.00    0.00   40.97   25.08    5.58    0.00    0.00   32.89    16.3     9.6    3.00    1.36    1.32    1.07    1.05    0.80    0.79    0.07    0.12    0.10    0.10    0.11    0.11    0.09    0.09    0.07    0.07   32.96   16.47    9.73    3.10    1.46    1.43    1.16    1.14    0.87    0.86
 1981 189    25    50     1    69.7    67.8     1.9   26.05   35.09    0.00    0.00   40.99   26.05    7.24    0.00    0.00   32.26    15.6     9.3    3.02    1.42    1.38    1.11    1.10    0.84    0.82    0.06    0.11    0.10    0.10    0.11    0.11    0.09    0.09    0.07    0.07   32.31   15.74    9.38    3.12    1.52    1.48    1.20    1.18    0.90    0.89
 1981 190    26    50     1    67.7    65.8     1.9   27.00   36.05    0.00    0.00   41.01   27.00   10.16    0.00    0.00   31.45    14.2     8.5    2.97    1.47    1.43    1.16    1.14    0.87    0.85    0.05    0.10    0.09    0.10    0.11    0.11    0.09    0.09    0.07    0.07   31.50   14.34    8.63    3.07    1.58    1.54    1.24    1.23    0.93    0.92
 1981 191    27    50     1    67.8    65.9     1.8   27.92   36.96    0.00    0.00   41.03   27.92   10.95    0.00    0.00   23.05    18.1     8.3    2.98    1.53    1.48    1.20    1.18    0.90    0.88    0.04    0.10    0.09    0.10    0.11    0.11    0.09    0.09    0.07    0.07   23.09   18.17    8.37    3.07    1.63    1.59    1.29    1.27    0.96    0.95
 1981 192    28    50     1    67.6    65.7     1.9   28.86   37.84    0.00    0.00   41.04   28.86   12.06    0.00    0.00   13.42    18.6    14.2    3.34    1.58    1.54    1.24    1.22    0.93    0.91    0.08    0.12    0.09    0.10    0.11    0.11    0.09    0.09    0.07    0.07   13.50   18.73   14.32    3.43    1.68    1.64    1.33    1.31    1.00    0.98
 1981 193    29    50     1    67.0    65.0     2.0   29.80   38.71    0.00    0.00   41.07   29.80   13.58    0.00    0.00    7.81    12.9    17.1    6.63    2.39    1.62    1.28    1.26    0.96    0.94    0.08    0.14    0.12    0.10    0.11    0.11    0.09    0.09    0.07    0.07    7.89   13.00   17.22    6.73    2.50    1.73    1.36    1.35    1.02    1.01
 1981 194    30    50     1    65.8    63.8     2.1   30.73   39.51    0.00    0.00   41.10   30.73   15.56    0.08    0.00    7.99    10.8    12.9    6.99    3.39    1.92    1.44    1.33    1.00    0.98    0.08    0.16    0.15    0.11    0.12    0.11    0.09    0.09    0.07    0.07    8.07   10.94   13.05    7.10    3.50    2.03    1.52    1.42    1.07    1.05
 1981 195    31    50     1    63.7    61.6     2.1   31.66   40.40    0.00    0.00   41.12   31.66   18.57    0.08    0.00    9.02     9.5    10.7    6.60    3.49    1.99    1.48    1.37    1.03    1.01    0.07    0.16    0.15    0.11    0.12    0.11    0.09    0.09    0.07    0.07    9.09    9.70   10.81    6.72    3.61    2.10    1.57    1.46    1.10    1.08
 1981 196    32    50     1    62.4    60.3     2.1   32.61   41.34    0.00    0.00   41.15   32.61   20.84    0.08    0.00    9.73     8.8     9.5    6.23    3.49    2.02    1.52    1.41    1.06    1.04    0.07    0.15    0.15    0.12    0.12    0.11    0.09    0.09    0.07    0.07    9.80    8.95    9.64    6.35    3.61    2.13    1.61    1.49    1.12    1.10
 1981 197    33    50     1    60.7    58.6     2.0   33.57   42.28    0.00    0.00   41.17   33.57   23.46    0.08    0.00    9.03     8.0     8.6    5.96    3.54    2.08    1.56    1.45    1.09    1.07    0.07    0.15    0.15    0.12    0.11    0.11    0.09    0.09    0.07    0.07    9.10    8.16    8.79    6.08    3.66    2.18    1.65    1.53    1.15    1.13
 1981 198    34    50     1    58.3    56.2     2.0   34.53   43.24    0.00    0.00   41.19   34.53   26.81    0.08    0.00    6.62     7.8     7.5    5.56    3.59    2.13    1.60    1.49    1.12    1.10    0.06    0.14    0.15    0.12    0.11    0.11    0.09    0.09    0.07    0.07    6.68    7.98    7.65    5.67    3.70    2.24    1.69    1.58    1.18    1.16
 1981 199    35    50     1    56.1    54.1     2.0   35.51   44.20    0.00    0.00   41.21   35.51   29.90    0.08    0.00    4.01     6.9     7.7    5.40    3.64    2.18    1.64    1.53    1.15    1.13    0.08    0.15    0.14    0.12    0.11    0.11    0.09    0.09    0.07    0.07    4.09    7.04    7.88    5.52    3.75    2.29    1.73    1.62    1.21    1.19
 1981 200    36    50     1    53.5    51.5     2.0   36.48   45.13    0.00    0.00   41.24   36.48   33.43    0.08    0.00    3.66     5.5     6.2    5.09    3.74    2.25    1.69    1.56    1.18    1.15    0.08    0.15    0.14    0.12    0.11    0.11    0.09    0.09    0.07    0.07    3.74    5.64    6.37    5.21    3.85    2.36    1.77    1.65    1.24    1.22
 1981 201    37    50     1    51.0    49.0     2.0   37.43   46.06    0.00    0.00   41.26   37.43   36.83    0.08    0.00    2.71     4.5     5.4    4.68    3.75    2.29    1.72    1.60    1.20    1.18    0.07    0.15    0.15    0.12    0.11    0.11    0.09    0.09    0.07    0.07    2.78    4.64    5.53    4.80    3.85    2.40    1.81    1.69    1.27    1.25
 1981 202    38    50     1    48.6    46.6     2.0   38.38   46.97    0.00    0.00   41.29   38.38   40.19    0.08    0.00    2.20     3.4     4.1    4.12    3.83    2.39    1.79    1.65    1.24    1.21    0.08    0.15    0.15    0.12    0.11    0.11    0.09    0.09    0.07    0.07    2.28    3.59    4.27    4.24    3.94    2.49    1.88    1.74    1.31    1.28
 1981 203    39    50     1    45.4    43.4     2.0   39.33   47.89    0.00    0.00   41.31   39.33   44.32    0.08    0.00    1.69     2.4     2.9    3.37    3.82    2.42    1.82    1.69    1.27    1.24    0.07    0.15    0.15    0.12    0.11    0.11    0.09    0.09    0.07    0.07    1.76    2.53    3.00    3.48    3.93    2.53    1.91    1.78    1.33    1.31
 1981 204    40    50     1    43.0    41.0     2.0   40.26   48.80    0.00    0.00   41.34   40.26   47.60    0.08    0.00    0.66     1.5     2.2    2.84    3.85    2.50    1.88    1.73    1.30    1.27    0.07    0.15    0.15    0.12    0.11    0.11    0.09    0.09    0.07    0.07    0.73    1.61    2.31    2.96    3.96    2.61    1.96    1.81    1.36    1.33
 1981 205    41    50     1    39.7    37.6     2.1   41.19   49.65    0.00    0.00   41.36   41.19   51.79    0.08    0.00    0.21     0.5     0.9    1.81    3.74    2.66    1.97    1.79    1.33    1.29    0.08    0.16    0.16    0.12    0.12    0.12    0.09    0.09    0.07    0.07    0.29    0.69    1.02    1.93    3.86    2.78    2.06    1.88    1.40    1.36
 1981 206    42    50     1    38.6    36.4     2.2   42.13   50.49    0.00    0.00   41.39   42.13   53.88    0.08    0.00    0.18     0.3     0.4    1.13    3.46    2.81    2.10    1.86    1.37    1.34    0.08    0.17    0.18    0.12    0.13    0.12    0.09    0.09    0.07    0.07    0.26    0.46    0.58    1.26    3.58    2.93    2.19    1.95    1.44    1.41
 1981 207    43    50     1    38.2    36.0     2.3   43.07   51.32    0.00    0.00   41.41   43.07   55.11    0.08    0.00    0.15     0.3     0.3    0.74    3.06    2.91    2.24    1.95    1.41    1.38    0.08    0.18    0.19    0.13    0.13    0.13    0.09    0.09    0.08    0.07    0.23    0.47    0.52    0.87    3.19    3.04    2.33    2.04    1.49    1.45
 1981 208    44    50     1    38.2    35.8     2.4   43.99   52.11    0.00    0.00   41.41   43.99   56.04    0.08    0.00    0.15     0.3     0.3    0.51    2.68    2.92    2.36    2.03    1.46    1.41    0.13    0.19    0.20    0.13    0.14    0.14    0.10    0.10    0.08    0.08    0.27    0.47    0.52    0.64    2.82    3.06    2.46    2.13    1.54    1.49
 1981 209    45    50     1    38.3    35.8     2.5   44.90   52.92    0.02    0.00   41.42   44.90   56.79    0.16    0.00    0.17     0.3     0.3    0.39    2.38    2.87    2.45    2.11    1.50    1.45    0.15    0.18    0.20    0.13    0.14    0.14    0.10    0.10    0.08    0.08    0.32    0.49    0.52    0.52    2.52    3.02    2.55    2.21    1.58    1.53
 1981 210    46    50     1    38.3    35.7     2.5   45.81   53.77    0.05    0.00   41.42   45.81   57.53    0.29    0.00    0.16     0.3     0.3    0.33    2.11    2.78    2.51    2.17    1.54    1.49    0.17    0.17    0.20    0.13    0.14    0.14    0.10    0.10    0.09    0.09    0.33    0.47    0.53    0.46    2.25    2.92    2.61    2.27    1.62    1.57
 1981 211    47    50     1    38.3    35.7     2.6   46.70   54.59    0.08    0.00   41.43   46.70   58.19    0.46    0.00    0.13     0.3     0.3    0.32    1.81    2.65    2.61    2.26    1.58    1.52    0.19    0.18    0.21    0.13    0.14    0.14    0.10    0.10    0.09    0.09    0.32    0.44    0.50    0.45    1.95    2.80    2.71    2.36    1.67    1.61
 1981 212    48    50     1    38.4    35.7     2.7   47.59   55.37    0.12    0.00   41.43   47.59   58.73    0.66    0.00    0.16     0.3     0.3    0.29    1.56    2.47    2.65    2.35    1.63    1.56    0.20    0.19    0.21    0.14    0.15    0.15    0.10    0.10    0.09    0.09    0.36    0.47    0.52    0.43    1.71    2.62    2.75    2.45    1.72    1.65
 1981 213    49    50     1    38.5    35.8     2.7   48.48   56.22    0.16    0.00   41.43   48.48   59.23    0.90    0.00    0.19     0.3     0.3    0.30    1.39    2.28    2.64    2.41    1.68    1.60    0.20    0.19    0.22    0.14    0.15    0.15    0.10    0.10    0.09    0.09    0.39    0.49    0.53    0.44    1.54    2.43    2.75    2.52    1.77    1.69
 1981 214    50    50     1    38.5    35.8     2.7   49.38   57.11    0.21    0.00   41.44   49.38   59.78    1.17    0.00    0.15     0.3     0.3    0.32    1.22    2.10    2.64    2.48    1.73    1.64    0.20    0.18    0.21    0.14    0.15    0.15    0.10    0.10    0.09    0.09    0.35    0.44    0.53    0.46    1.37    2.25    2.75    2.59    1.82    1.73
 1981 215    51    50     1    37.0    34.2     2.8   50.29   57.93    0.26    0.00   41.44   50.29   60.31    3.02    0.00    0.20     0.3     0.3    0.27    0.97    1.70    2.35    2.38    1.72    1.64    0.21    0.19    0.22    0.15    0.16    0.16    0.11    0.11    0.10    0.09    0.41    0.47    0.50    0.42    1.13    1.86    2.46    2.49    1.82    1.73
 1981 216    52    50     1    36.9    34.2     2.7   51.20   58.94    0.28    0.00   41.44   51.20   60.69    3.64    0.00    0.29     0.3     0.3    0.31    0.92    1.57    2.28    2.36    1.74    1.65    0.18    0.18    0.19    0.14    0.15    0.15    0.10    0.10    0.09    0.09    0.47    0.51    0.53    0.45    1.07    1.72    2.38    2.46    1.83    1.75
 1981 217    53    50     1    37.2    34.6     2.6   52.13   59.96    0.28    0.00   41.45   52.13   61.23    3.70    0.00    0.34     0.3     0.3    0.32    0.91    1.52    2.30    2.38    1.77    1.68    0.17    0.17    0.18    0.13    0.14    0.14    0.10    0.10    0.09    0.09    0.51    0.50    0.51    0.45    1.05    1.66    2.40    2.48    1.86    1.77
 1981 218    54    50     1    37.5    35.0     2.5   53.07   61.00    0.29    0.00   41.45   53.07   61.82    3.75    0.00    0.20     0.3     0.4    0.34    0.92    1.49    2.33    2.42    1.79    1.71    0.15    0.16    0.17    0.13    0.13    0.13    0.10    0.10    0.09    0.09    0.36    0.48    0.55    0.46    1.04    1.61    2.43    2.52    1.88    1.80
 1981 219    55    50     1    37.4    34.9     2.5   54.00   61.93    0.29    0.00   41.45   54.00   62.40    4.11    0.00    0.24     0.3     0.3    0.31    0.86    1.38    2.27    2.44    1.83    1.75    0.17    0.17    0.18    0.12    0.12    0.13    0.10    0.10    0.09    0.09    0.41    0.46    0.47    0.43    0.98    1.51    2.37    2.53    1.92    1.84
 1981 220    56    50     1    38.0    35.5     2.4   54.95   62.94    0.29    0.00   41.46   54.95   62.81    4.11    0.00    0.32     0.3     0.3    0.31    0.86    1.35    2.31    2.48    1.86    1.78    0.16    0.16    0.17    0.12    0.12    0.12    0.09    0.09    0.09    0.09    0.48    0.49    0.50    0.44    0.97    1.47    2.41    2.57    1.95    1.86
 1981 221    57    50     1    38.4    36.0     2.4   55.90   63.92    0.29    0.00   41.46   55.90   63.36    4.11    0.00    0.34     0.3     0.3    0.31    0.85    1.32    2.35    2.51    1.89    1.80    0.15    0.16    0.16    0.12    0.11    0.12    0.09    0.09    0.09    0.09    0.49    0.49    0.49    0.43    0.96    1.43    2.44    2.61    1.97    1.89
 1981 222    58    50     1    38.8    36.4     2.4   56.86   64.90    0.30    0.00   41.46   56.86   63.91    4.11    0.00    0.34     0.3     0.3    0.31    0.85    1.28    2.39    2.55    1.92    1.83    0.14    0.16    0.16    0.12    0.11    0.11    0.09    0.09    0.09    0.09    0.48    0.48    0.48    0.43    0.96    1.40    2.48    2.64    2.00    1.92
 1981 223    59    50     1    39.2    36.8     2.3   57.81   65.88    0.30    0.00   41.47   57.81   64.45    4.11    0.00    0.30     0.3     0.3    0.31    0.85    1.25    2.43    2.59    1.95    1.86    0.14    0.15    0.15    0.12    0.11    0.11    0.09    0.09    0.09    0.09    0.44    0.49    0.47    0.43    0.96    1.37    2.52    2.68    2.03    1.95
 1981 224    60    50     1    39.6    37.2     2.3   58.76   66.84    0.30    0.00   41.47   58.76   64.98    4.11    0.00    0.23     0.3     0.4    0.32    0.84    1.23    2.47    2.63    1.97    1.89    0.15    0.15    0.13    0.12    0.11    0.11    0.09    0.09    0.09    0.09    0.38    0.48    0.51    0.44    0.95    1.34    2.56    2.72    2.06    1.98
 1981 225    61    50     1    40.0    37.6     2.4   59.71   67.76    0.30    0.00   41.47   59.71   65.51    4.11    0.00    0.20     0.3     0.3    0.33    0.84    1.20    2.51    2.67    2.00    1.92    0.17    0.15    0.14    0.12    0.11    0.11    0.09    0.09    0.08    0.09    0.37    0.46    0.48    0.45    0.95    1.31    2.60    2.76    2.09    2.00
 1981 226    62    50     1    40.4    38.0     2.4   60.64   68.66    0.30    0.00   41.48   60.64   66.00    4.11    0.00    0.23     0.3     0.3    0.32    0.85    1.17    2.55    2.70    2.03    1.95    0.18    0.16    0.16    0.12    0.11    0.11    0.09    0.09    0.08    0.09    0.41    0.46    0.47    0.44    0.95    1.28    2.64    2.79    2.12    2.03
 1981 227    63    50     1    40.9    38.5     2.4   61.58   69.61    0.30    0.00   41.48   61.58   66.44    4.11    0.00    0.28     0.3     0.3    0.30    0.83    1.18    2.59    2.74    2.07    1.97    0.19    0.16    0.17    0.12    0.11    0.11    0.09    0.09    0.08    0.09    0.46    0.47    0.47    0.43    0.94    1.29    2.67    2.83    2.14    2.06
 1981 228    64    50     1    41.4    39.1     2.3   62.51   70.63    0.30    0.00   41.48   62.51   66.88    4.11    0.00    0.31     0.3     0.3    0.31    0.83    1.16    2.62    2.78    2.10    2.00    0.16    0.16    0.16    0.12    0.11    0.11    0.09    0.09    0.07    0.09    0.48    0.49    0.50    0.44    0.93    1.27    2.71    2.87    2.17    2.09
 1981 229    65    50     1    41.8    39.6     2.2   63.43   71.61    0.30    0.00   41.49   63.43   67.40    4.11    0.00    0.28     0.3     0.3    0.31    0.82    1.13    2.66    2.81    2.13    2.04    0.16    0.16    0.16    0.12    0.11    0.11    0.09    0.09    0.07    0.08    0.45    0.48    0.49    0.43    0.93    1.24    2.75    2.90    2.20    2.11
 1981 230    66    50     1    42.2    40.0     2.2   64.36   72.59    0.30    0.00   41.49   64.36   67.89    4.11    0.00    0.27     0.3     0.3    0.32    0.82    1.11    2.70    2.85    2.16    2.07    0.16    0.16    0.16    0.12    0.11    0.11    0.09    0.09    0.07    0.07    0.43    0.48    0.50    0.44    0.93    1.22    2.79    2.94    2.22    2.14
 1981 231    67    50     1    42.7    40.5     2.1   65.32   73.56    0.30    0.00   41.50   65.32   68.39    4.11    0.00    0.29     0.3     0.3    0.32    0.82    1.10    2.74    2.89    2.18    2.10    0.17    0.15    0.16    0.12    0.11    0.11    0.09    0.09    0.07    0.07    0.47    0.47    0.47    0.44    0.93    1.21    2.82    2.97    2.25    2.17
 1981 232    68    50     1    43.1    41.0     2.1   66.28   74.56    0.30    0.00   41.50   66.28   68.87    4.11    0.00    0.32     0.3     0.3    0.31    0.82    1.09    2.77    2.92    2.21    2.13    0.15    0.15    0.15    0.12    0.11    0.11    0.09    0.09    0.07    0.07    0.47    0.49    0.49    0.43    0.93    1.20    2.86    3.01    2.28    2.20
 1981 233    69    50     1    43.6    41.5     2.1   67.25   75.54    0.30    0.00   41.51   67.25   69.40    4.11    0.00    0.32     0.3     0.3    0.31    0.82    1.08    2.81    2.96    2.24    2.16    0.15    0.15    0.15    0.12    0.11    0.11    0.09    0.09    0.07    0.07    0.47    0.48    0.48    0.43    0.93    1.19    2.90    3.05    2.31    2.22
 1981 234    70    50     1    44.0    42.0     2.1   68.23   76.53    0.30    0.00   41.51   68.23   69.91    4.11    0.00    0.20     0.3     0.4    0.35    0.83    1.07    2.85    3.00    2.27    2.19    0.14    0.15    0.15    0.12    0.11    0.11    0.09    0.09    0.07    0.07    0.35    0.46    0.52    0.46    0.93    1.18    2.94    3.08    2.33    2.25
 1981 235    71    50     1    44.5    42.3     2.1   69.20   77.45    0.30    0.00   41.51   69.20   70.44    4.11    0.00    0.24     0.3     0.3    0.30    0.78    1.11    2.87    3.06    2.31    2.21    0.17    0.17    0.17    0.12    0.11    0.11    0.09    0.09    0.07    0.07    0.40    0.45    0.45    0.42    0.89    1.21    2.96    3.15    2.38    2.28
 1981 236    72    50     1    45.0    42.9     2.1   70.14   78.41    0.30    0.00   41.52   70.14   70.79    4.11    0.00    0.32     0.3     0.3    0.31    0.78    1.09    2.91    3.10    2.34    2.24    0.15    0.16    0.17    0.12    0.11    0.11    0.09    0.09    0.07    0.07    0.47    0.48    0.49    0.43    0.89    1.20    3.00    3.19    2.41    2.31
 1981 237    73    50     1    45.5    43.4     2.1   71.07   79.34    0.30    0.00   41.52   71.07   71.29    4.11    0.00    0.33     0.3     0.3    0.31    0.78    1.08    2.94    3.13    2.37    2.27    0.15    0.16    0.16    0.12    0.11    0.11    0.09    0.09    0.07    0.07    0.48    0.48    0.49    0.43    0.89    1.19    3.03    3.22    2.43    2.34
 1981 238    74    50     1    45.9    43.8     2.1   71.99   80.26    0.30    0.00   41.53   71.99   71.79    4.11    0.00    0.22     0.3     0.4    0.32    0.77    1.05    2.98    3.17    2.40    2.30    0.14    0.16    0.16    0.12    0.11    0.11    0.09    0.09    0.07    0.07    0.36    0.49    0.51    0.44    0.88    1.16    3.07    3.26    2.46    2.36
 1981 239    75    50     1    46.3    44.2     2.1   72.92   81.16    0.30    0.00   41.53   72.92   72.28    4.11    0.00    0.25     0.3     0.3    0.31    0.77    1.07    3.02    3.20    2.42    2.32    0.16    0.16    0.16    0.12    0.11    0.11    0.09    0.09    0.07    0.07    0.41    0.46    0.47    0.43    0.88    1.17    3.11    3.29    2.49    2.39
 1981 240    76    50     1    46.8    44.7     2.1   73.85   82.10    0.30    0.00   41.54   73.85   72.69    4.11    0.00    0.33     0.3     0.3    0.31    0.77    1.06    3.06    3.24    2.45    2.35    0.15    0.16    0.16    0.12    0.11    0.11    0.09    0.09    0.07    0.07    0.48    0.48    0.48    0.43    0.87    1.17    3.14    3.33    2.52    2.42
 1981 241    77    50     1    47.3    45.2     2.1   74.79   83.05    0.30    0.00   41.54   74.79   73.18    4.11    0.00    0.34     0.3     0.3    0.31    0.77    1.05    3.09    3.27    2.48    2.38    0.14    0.15    0.15    0.12    0.11    0.11    0.09    0.09    0.07    0.07    0.48    0.48    0.48    0.43    0.87    1.16    3.18    3.36    2.54    2.45