*SOIL WATER DAILY OUTPUT FILE

*DSSAT Cropping System Model Ver. 4.7.5.008 -release  MAY 04, 2021 17:13:31

*RUN   1        : ET-SIMAGRI                MZCER047 ETMZdddd    1
 MODEL          : MZCER047 - Maize
 EXPERIMENT     : ETMZdddd SN MELKSSAL
 DATA PATH      : C:\IRI\Python_Dash\ET_DSS_hist\TEST\
 TREATMENT  1   : ET-SIMAGRI                MZCER047
  
!                                                                                                 Soil water content (mm3/mm3) by soil depth (cm):
!                                                                                                 0-5    5-15   15-20   20-35   35-50   50-65   65-81   81-97  97-118 118-200
@YEAR DOY   DAS  SWTD  SWXD   ROFC   DRNC   PREC  IR#C  IRRC  DTWT    MWTD  TDFD  TDFC   ROFD    SW1D    SW2D    SW3D    SW4D    SW5D    SW6D    SW7D    SW8D    SW9D    SW10
 1981 164     0   586   288      0      0      0     0     0     0    0.00   0.0   0.0   0.00   0.231   0.231   0.231   0.221   0.316   0.316   0.304   0.304   0.305   0.305
 1981 165     1   585   287      0      0      0     0     0   100    0.00   0.0   0.0   0.00   0.215   0.230   0.231   0.221   0.316   0.316   0.304   0.304   0.305   0.305
 1981 166     2   584   286      0      0      0     0     0   200    0.00   0.0   0.0   0.00   0.200   0.229   0.230   0.221   0.316   0.316   0.304   0.304   0.305   0.305
 1981 167     3   583   285      0      0      0     0     0   200    0.00   0.0   0.0   0.00   0.186   0.228   0.230   0.221   0.316   0.316   0.304   0.304   0.305   0.305
 1981 168     4   583   284      0      0      0     0     0   200    0.00   0.0   0.0   0.00   0.174   0.227   0.230   0.220   0.316   0.316   0.304   0.304   0.305   0.305
 1981 169     5   582   284      0      0      0     0     0   200    0.00   0.0   0.0   0.00   0.162   0.226   0.229   0.220   0.316   0.316   0.304   0.304   0.305   0.305
 1981 170     6   581   283      0      0      0     0     0   200    0.00   0.0   0.0   0.00   0.152   0.225   0.229   0.220   0.315   0.316   0.304   0.304   0.305   0.305
 1981 171     7   580   282      0      0      0     0     0   200    0.00   0.0   0.0   0.00   0.143   0.224   0.229   0.220   0.315   0.316   0.304   0.304   0.305   0.305
 1981 172     8   580   282      0      0      0     0     0   200    0.00   0.0   0.0   0.00   0.134   0.223   0.228   0.220   0.315   0.316   0.304   0.304   0.305   0.305
 1981 173     9   579   281      0      0      0     0     0   200    0.00   0.0   0.0   0.00   0.127   0.221   0.228   0.220   0.315   0.316   0.304   0.304   0.305   0.305
 1981 174    10   579   281      0      0      0     0     0   200    0.00   0.0   0.0   0.00   0.120   0.220   0.228   0.220   0.315   0.315   0.304   0.304   0.305   0.305
 1981 175    11   583   285      0      0      5     0     0   200    0.00   0.0   0.0   0.00   0.216   0.219   0.227   0.219   0.315   0.315   0.304   0.304   0.305   0.305
 1981 176    12   586   288      0      0     10     0     0   200    0.00   0.0   0.0   0.00   0.260   0.228   0.227   0.219   0.315   0.315   0.304   0.304   0.305   0.305
 1981 177    13   585   287      0      0     10     0     0   200    0.00   0.0   0.0   0.00   0.239   0.226   0.226   0.219   0.315   0.315   0.304   0.304   0.305   0.305
 1981 178    14   584   286      0      0     10     0     0   200    0.00   0.0   0.0   0.00   0.219   0.225   0.226   0.219   0.315   0.315   0.304   0.304   0.305   0.305
 1981 179    15   583   284      0      0     10     0     0   200    0.00   0.0   0.0   0.00   0.202   0.222   0.225   0.219   0.315   0.315   0.304   0.304   0.305   0.305
 1981 180    16   585   287      0      0     13     0     0   200    0.00   0.0   0.0   0.00   0.247   0.221   0.223   0.219   0.314   0.315   0.304   0.304   0.305   0.305
 1981 181    17   583   285      0      0     13     0     0   200    0.00   0.0   0.0   0.00   0.224   0.219   0.222   0.219   0.314   0.315   0.303   0.304   0.305   0.305
 1981 182    18   582   284      0      0     13     0     0   200    0.00   0.0   0.0   0.00   0.205   0.217   0.221   0.218   0.314   0.315   0.303   0.304   0.305   0.305
 1981 183    19   581   282      0      0     13     0     0   200    0.00   0.0   0.0   0.00   0.190   0.214   0.219   0.218   0.314   0.315   0.303   0.304   0.305   0.305
 1981 184    20   584   286      0      0     18     0     0   200    0.00   0.0   0.0   0.00   0.257   0.218   0.216   0.218   0.314   0.315   0.303   0.304   0.305   0.305
 1981 185    21   583   285      0      0     22     0     0   200    0.00   0.0   0.0   0.00   0.269   0.231   0.211   0.215   0.311   0.312   0.301   0.302   0.303   0.304
 1981 186    22   578   280      0      0     22     0     0   200    0.00   0.0   0.0   0.00   0.242   0.224   0.208   0.212   0.308   0.310   0.300   0.300   0.302   0.302
 1981 187    23   576   278      0      0     22     0     0   200    0.00   0.0   0.0   0.00   0.216   0.219   0.207   0.211   0.308   0.310   0.300   0.300   0.302   0.302
 1981 188    24   573   275      0      0     22     0     0   200    0.00   0.0   0.0   0.00   0.194   0.212   0.204   0.209   0.308   0.310   0.300   0.300   0.302   0.302
 1981 189    25   572   273      0      0     22     0     0   200    0.00   0.0   0.0   0.00   0.180   0.205   0.202   0.207   0.308   0.310   0.300   0.300   0.302   0.302
 1981 190    26   570   272      0      0     22     0     0   200    0.00   0.0   0.0   0.00   0.167   0.201   0.199   0.203   0.308   0.310   0.300   0.300   0.302   0.302
 1981 191    27   578   280      0      0     32     0     0   200    0.00   0.0   0.0   0.00   0.296   0.228   0.197   0.199   0.308   0.310   0.300   0.300   0.302   0.302
 1981 192    28   587   289      0      0     45     0     0   200    0.00   0.0   0.0   0.27   0.322   0.280   0.267   0.201   0.306   0.309   0.299   0.299   0.301   0.302
 1981 193    29   607   308      7      0     75     0     0   200    0.00   0.0   0.0   6.23   0.324   0.320   0.322   0.275   0.318   0.313   0.298   0.299   0.300   0.301
 1981 194    30   599   301      7      2     75     0     0   200    0.00   0.0   0.0   0.00   0.264   0.269   0.273   0.264   0.316   0.314   0.303   0.303   0.304   0.304
 1981 195    31   594   296      7      2     75     0     0   200    0.00   0.0   0.0   0.00   0.245   0.252   0.256   0.261   0.315   0.315   0.303   0.303   0.304   0.304
 1981 196    32   591   293      7      2     75     0     0   200    0.00   0.0   0.0   0.00   0.219   0.242   0.248   0.259   0.315   0.315   0.303   0.303   0.304   0.304
 1981 197    33   588   290      7      2     75     0     0   200    0.00   0.0   0.0   0.00   0.199   0.229   0.237   0.256   0.314   0.315   0.303   0.303   0.304   0.304
 1981 198    34   593   295      7      2     83     0     0   200    0.00   0.0   0.0   0.00   0.287   0.244   0.226   0.253   0.314   0.315   0.303   0.303   0.304   0.304
 1981 199    35   598   300      7      2     92     0     0   200    0.00   0.0   0.0   0.02   0.321   0.268   0.262   0.255   0.313   0.314   0.302   0.302   0.304   0.304
 1981 200    36   594   296      7      2     92     0     0   200    0.00   0.0   0.0   0.00   0.268   0.250   0.251   0.260   0.315   0.315   0.302   0.302   0.303   0.303
 1981 201    37   598   300      7      2    101     0     0   200    0.00   0.0   0.0   0.00   0.325   0.263   0.264   0.263   0.314   0.314   0.301   0.301   0.303   0.303
 1981 202    38   594   296      7      2    101     0     0   200    0.00   0.0   0.0   0.00   0.270   0.248   0.249   0.259   0.315   0.315   0.303   0.303   0.305   0.303
 1981 203    39   590   292      7      2    101     0     0   200    0.00   0.0   0.0   0.00   0.252   0.240   0.238   0.254   0.314   0.315   0.303   0.303   0.304   0.303
 1981 204    40   605   307      8      2    122     0     0   200    0.00   0.0   0.0   1.84   0.325   0.298   0.300   0.265   0.317   0.317   0.304   0.303   0.304   0.303
 1981 205    41   612   314      9      2    134     0     0   200    0.00   0.0   0.0   0.51   0.324   0.304   0.316   0.277   0.326   0.323   0.308   0.306   0.306   0.302
 1981 206    42   618   320      9      2    144     0     0   200    0.00   0.0   0.0   0.32   0.327   0.304   0.318   0.284   0.332   0.330   0.313   0.310   0.308   0.307
 1981 207    43   625   327     10      2    155     0     0   200    0.00   0.0   0.0   0.31   0.331   0.308   0.321   0.289   0.337   0.335   0.319   0.315   0.311   0.309
 1981 208    44   626   328     10      2    160     0     0   200    0.00   0.0   0.0   0.00   0.327   0.288   0.318   0.283   0.335   0.337   0.322   0.319   0.314   0.312
 1981 209    45   626   328     10      4    166     0     0   199    0.00   0.0   0.0   0.00   0.325   0.278   0.308   0.278   0.331   0.335   0.322   0.321   0.316   0.314
 1981 210    46   631   333     10      6    177     0     0   199    0.00   0.0   0.0   0.39   0.331   0.302   0.322   0.283   0.332   0.335   0.322   0.321   0.317   0.316
 1981 211    47   643   345     13     10    198     0     0   198    0.00   0.0   0.0   3.07   0.330   0.320   0.321   0.306   0.346   0.343   0.327   0.324   0.319   0.317
 1981 212    48   640   342     13     13    203     0     0   198    0.00   0.0   0.0   0.00   0.323   0.293   0.321   0.292   0.344   0.345   0.330   0.327   0.321   0.319
 1981 213    49   636   338     13     18    208     0     0   198    0.00   0.0   0.0   0.00   0.321   0.279   0.310   0.282   0.336   0.341   0.329   0.328   0.322   0.321
 1981 214    50   652   354     20     23    239     0     0   197    0.00   0.0   0.0   7.05   0.331   0.321   0.322   0.313   0.352   0.349   0.333   0.331   0.324   0.322
 1981 215    51   616   318     20     55    239     0     0   199    0.00   0.0   0.0   0.00   0.276   0.273   0.274   0.278   0.326   0.328   0.315   0.314   0.312   0.312
 1981 216    52   601   303     20     66    239     0     0   200    0.00   0.0   0.0   0.00   0.256   0.255   0.256   0.264   0.315   0.319   0.308   0.308   0.308   0.307
 1981 217    53   596   298     20     67    239     0     0   200    0.00   0.0   0.0   0.00   0.244   0.244   0.245   0.259   0.311   0.316   0.305   0.305   0.308   0.307
 1981 218    54   611   312     22     67    260     0     0   200    0.00   0.0   0.0   2.03   0.327   0.302   0.307   0.268   0.315   0.316   0.305   0.305   0.306   0.307
 1981 219    55   599   301     22     73    260     0     0   200    0.00   0.0   0.0   0.00   0.273   0.264   0.266   0.259   0.311   0.314   0.305   0.305   0.306   0.306
 1981 220    56   595   297     22     73    260     0     0   200    0.00   0.0   0.0   0.00   0.252   0.249   0.250   0.258   0.306   0.312   0.305   0.305   0.306   0.306
 1981 221    57   590   292     22     73    260     0     0   200    0.00   0.0   0.0   0.00   0.238   0.237   0.239   0.251   0.301   0.310   0.304   0.304   0.306   0.306
 1981 222    58   586   288     22     73    260     0     0   200    0.00   0.0   0.0   0.00   0.227   0.227   0.229   0.245   0.297   0.308   0.304   0.304   0.305   0.306
 1981 223    59   587   289     22     73    265     0     0   200    0.00   0.0   0.0   0.00   0.272   0.237   0.221   0.240   0.294   0.307   0.304   0.304   0.305   0.306
 1981 224    60   596   298     22     73    277     0     0   200    0.00   0.0   0.0   0.11   0.331   0.277   0.269   0.243   0.291   0.305   0.304   0.304   0.305   0.306
 1981 225    61   601   303     22     73    287     0     0   200    0.00   0.0   0.0   0.15   0.326   0.292   0.305   0.260   0.291   0.303   0.303   0.303   0.305   0.305
 1981 226    62   600   302     22     73    291     0     0   200    0.00   0.0   0.0   0.00   0.313   0.278   0.302   0.266   0.300   0.301   0.303   0.303   0.305   0.305
 1981 227    63   596   298     22     73    291     0     0   200    0.00   0.0   0.0   0.00   0.269   0.257   0.267   0.260   0.312   0.308   0.303   0.303   0.304   0.305
 1981 228    64   596   298     22     73    295     0     0   200    0.00   0.0   0.0   0.00   0.291   0.261   0.266   0.261   0.309   0.306   0.302   0.303   0.304   0.305
 1981 229    65   595   297     22     73    298     0     0   200    0.00   0.0   0.0   0.00   0.293   0.261   0.265   0.259   0.308   0.304   0.302   0.302   0.304   0.304
 1981 230    66   596   298     22     73    305     0     0   200    0.00   0.0   0.0   0.00   0.321   0.266   0.272   0.258   0.307   0.301   0.301   0.302   0.303   0.304
 1981 231    67   590   292     22     73    305     0     0   200    0.00   0.0   0.0   0.00   0.268   0.250   0.253   0.255   0.311   0.299   0.301   0.301   0.303   0.304
 1981 232    68   590   292     22     73    309     0     0   200    0.00   0.0   0.0   0.00   0.288   0.255   0.254   0.249   0.307   0.297   0.300   0.301   0.303   0.303
 1981 233    69   585   287     22     73    309     0     0   200    0.00   0.0   0.0   0.00   0.258   0.250   0.250   0.242   0.302   0.294   0.300   0.300   0.302   0.303
 1981 234    70   601   303     25     73    332     0     0   200    0.00   0.0   0.0   2.55   0.329   0.313   0.321   0.263   0.306   0.292   0.299   0.300   0.302   0.303
 1981 235    71   597   299     25     73    332     0     0   200    0.00   0.0   0.0   0.00   0.276   0.272   0.276   0.257   0.312   0.314   0.304   0.304   0.304   0.302
 1981 236    72   593   295     25     73    332     0     0   200    0.00   0.0   0.0   0.00   0.256   0.257   0.259   0.258   0.313   0.312   0.303   0.303   0.303   0.302
 1981 237    73   589   291     25     73    332     0     0   200    0.00   0.0   0.0   0.00   0.230   0.248   0.251   0.251   0.309   0.310   0.303   0.303   0.303   0.302
 1981 238    74   598   300     25     73    345     0     0   200    0.00   0.0   0.0   0.20   0.328   0.278   0.280   0.258   0.306   0.307   0.303   0.303   0.303   0.302
 1981 239    75   593   295     25     73    345     0     0   200    0.00   0.0   0.0   0.00   0.274   0.258   0.259   0.256   0.312   0.313   0.303   0.302   0.303   0.302
 1981 240    76   588   290     25     73    345     0     0   200    0.00   0.0   0.0   0.00   0.252   0.250   0.250   0.249   0.308   0.310   0.302   0.302   0.302   0.301
 1981 241    77   583   285     25     73    345     0     0   200    0.00   0.0   0.0   0.00   0.225   0.241   0.242   0.242   0.304   0.308   0.302   0.302   0.302   0.301
 1981 242    78   596   297     26     73    362     0     0   200    0.00   0.0   0.0   0.73   0.328   0.286   0.287   0.253   0.301   0.306   0.301   0.301   0.302   0.301
 1981 243    79   592   293     26     73    362     0     0   200    0.00   0.0   0.0   0.00   0.276   0.263   0.263   0.258   0.313   0.306   0.301   0.301   0.301   0.300
 1981 244    80   588   290     26     73    362     0     0   200    0.00   0.0   0.0   0.00   0.256   0.255   0.255   0.256   0.310   0.304   0.300   0.300   0.301   0.300
 1981 245    81   583   285     26     73    362     0     0   200    0.00   0.0   0.0   0.00   0.228   0.245   0.245   0.248   0.306   0.302   0.300   0.300   0.301   0.300
 1981 246    82   579   281     26     73    362     0     0   200    0.00   0.0   0.0   0.00   0.205   0.237   0.238   0.242   0.303   0.300   0.300   0.300   0.301   0.300
 1981 247    83   584   286     26     73    372     0     0   200    0.00   0.0   0.0   0.00   0.317   0.256   0.247   0.233   0.299   0.297   0.299   0.300   0.300   0.300
 1981 248    84   589   291     26     73    382     0     0   200    0.00   0.0   0.0   0.06   0.326   0.283   0.284   0.243   0.295   0.295   0.299   0.299   0.300   0.299
 1981 249    85   584   286     26     73    382     0     0   200    0.00   0.0   0.0   0.00   0.273   0.260   0.261   0.257   0.298   0.292   0.298   0.298   0.299   0.299
 1981 250    86   595   297     27     73    398     0     0   200    0.00   0.0   0.0   0.97   0.326   0.300   0.311   0.266   0.308   0.290   0.297   0.298   0.299   0.298
 1981 251    87   590   292     27     73    398     0     0   200    0.00   0.0   0.0   0.00   0.270   0.266   0.271   0.258   0.312   0.313   0.301   0.297   0.298   0.298
 1981 252    88   584   286     27     73    398     0     0   200    0.00   0.0   0.0   0.00   0.249   0.252   0.255   0.256   0.307   0.310   0.300   0.296   0.297   0.297
 1981 253    89   581   282     27     73    398     0     0   200    0.00   0.0   0.0   0.00   0.225   0.245   0.249   0.250   0.305   0.308   0.300   0.296   0.297   0.297
 1981 254    90   583   285     27     73    405     0     0   200    0.00   0.0   0.0   0.00   0.294   0.257   0.255   0.244   0.302   0.306   0.300   0.296   0.297   0.297
 1981 255    91   578   280     27     73    405     0     0   200    0.00   0.0   0.0   0.00   0.260   0.251   0.252   0.240   0.298   0.303   0.299   0.295   0.296   0.296
 1981 256    92   575   277     27     73    405     0     0   200    0.00   0.0   0.0   0.00   0.235   0.245   0.247   0.235   0.296   0.302   0.299   0.295   0.296   0.296
 1981 257    93   577   278     27     73    410     0     0   200    0.00   0.0   0.0   0.00   0.285   0.256   0.248   0.230   0.293   0.300   0.298   0.294   0.296   0.296
 1981 258    94   581   283     27     73    418     0     0   200    0.00   0.0   0.0   0.00   0.325   0.274   0.275   0.234   0.290   0.297   0.297   0.294   0.295   0.295
 1981 259    95   581   283     27     73    424     0     0   200    0.00   0.0   0.0   0.00   0.324   0.276   0.287   0.244   0.286   0.295   0.296   0.293   0.295   0.295
 1981 260    96   576   278     27     73    424     0     0   200    0.00   0.0   0.0   0.00   0.270   0.257   0.263   0.256   0.287   0.292   0.295   0.292   0.294   0.294
 1981 261    97   578   280     27     73    430     0     0   200    0.00   0.0   0.0   0.00   0.308   0.266   0.270   0.259   0.284   0.290   0.295   0.291   0.293   0.293
 1981 262    98   597   299     32     73    459     0     0   200    0.00   0.0   0.0   5.67   0.326   0.321   0.322   0.288   0.319   0.296   0.294   0.291   0.293   0.293
 1981 263    99   592   294     32     73    459     0     0   200    0.00   0.0   0.0   0.00   0.271   0.275   0.277   0.266   0.315   0.313   0.303   0.303   0.304   0.294
 1981 264   100   591   293     32     73    464     0     0   200    0.00   0.0   0.0   0.00   0.293   0.268   0.279   0.262   0.315   0.315   0.302   0.302   0.303   0.293
 1981 265   101   593   295     32     73    470     0     0   200    0.00   0.0   0.0   0.00   0.319   0.273   0.285   0.264   0.316   0.315   0.303   0.301   0.303   0.293
 1981 266   102   588   290     32     73    470     0     0   200    0.00   0.0   0.0   0.00   0.269   0.256   0.262   0.257   0.312   0.313   0.303   0.303   0.304   0.301
 1981 267   103   582   284     32     73    470     0     0   200    0.00   0.0   0.0   0.00   0.248   0.250   0.254   0.249   0.308   0.310   0.302   0.302   0.303   0.300
 1981 268   104   579   281     32     73    470     0     0   200    0.00   0.0   0.0   0.00   0.225   0.243   0.249   0.244   0.306   0.308   0.302   0.302   0.303   0.300
 1981 269   105   584   285     32     73    478     0     0   200    0.00   0.0   0.0   0.00   0.307   0.261   0.258   0.241   0.303   0.306   0.301   0.301   0.303   0.299
 1981 270   106   579   281     32     73    478     0     0   200    0.00   0.0   0.0   0.00   0.265   0.253   0.253   0.244   0.300   0.303   0.300   0.301   0.302   0.299
 1981 271   107   574   276     32     73    478     0     0   200    0.00   0.0   0.0   0.00   0.248   0.246   0.246   0.237   0.296   0.300   0.299   0.300   0.301   0.298
 1981 272   108   571   273     32     73    478     0     0   200    0.00   0.0   0.0   0.00   0.226   0.241   0.242   0.233   0.295   0.299   0.299   0.300   0.301   0.298
 1981 273   109   567   269     32     73    478     0     0   200    0.00   0.0   0.0   0.00   0.205   0.234   0.235   0.227   0.292   0.296   0.299   0.300   0.301   0.298
 1981 274   110   564   266     32     73    478     0     0   200    0.00   0.0   0.0   0.00   0.190   0.228   0.230   0.222   0.290   0.294   0.299   0.300   0.301   0.298
 1981 275   111   567   268     32     73    483     0     0   200    0.00   0.0   0.0   0.00   0.259   0.231   0.225   0.217   0.288   0.293   0.299   0.300   0.301   0.298
 1981 276   112   569   271     32     73    491     0     0   200    0.00   0.0   0.0   0.00   0.314   0.257   0.234   0.211   0.284   0.289   0.298   0.298   0.300   0.297
 1981 277   113   569   271     32     73    496     0     0   200    0.00   0.0   0.0   0.00   0.317   0.267   0.262   0.209   0.280   0.286   0.296   0.297   0.299   0.296
 1981 278   114   563   264     32     73    496     0     0   200    0.00   0.0   0.0   0.00   0.262   0.252   0.252   0.215   0.275   0.282   0.295   0.296   0.298   0.295
 1981 279   115   556   258     32     73    496     0     0   200    0.00   0.0   0.0   0.00   0.243   0.241   0.244   0.207   0.271   0.278   0.293   0.295   0.297   0.294
 1981 280   116   553   255     32     73    496     0     0   200    0.00   0.0   0.0   0.00   0.220   0.235   0.238   0.201   0.269   0.276   0.293   0.295   0.297   0.294
 1981 281   117   549   251     32     73    496     0     0   200    0.00   0.0   0.0   0.00   0.201   0.228   0.231   0.195   0.266   0.273   0.293   0.295   0.297   0.294
 1981 282   118   546   248     32     73    496     0     0   200    0.00   0.0   0.0   0.00   0.187   0.221   0.225   0.190   0.264   0.271   0.293   0.295   0.297   0.294
 1981 283   119   543   245     32     73    496     0     0   200    0.00   0.0   0.0   0.00   0.174   0.217   0.221   0.184   0.262   0.269   0.293   0.295   0.297   0.294
 1981 284   120   541   243     32     73    496     0     0   200    0.00   0.0   0.0   0.00   0.163   0.214   0.218   0.180   0.260   0.267   0.293   0.294   0.297   0.294
 1981 285   121   538   240     32     73    496     0     0   200    0.00   0.0   0.0   0.00   0.152   0.211   0.215   0.173   0.257   0.264   0.293   0.294   0.297   0.294
 1981 286   122   535   237     32     73    496     0     0   200    0.00   0.0   0.0   0.00   0.143   0.208   0.212   0.167   0.254   0.261   0.293   0.294   0.297   0.294
 1981 287   123   532   234     32     73    496     0     0   200    0.00   0.0   0.0   0.00   0.135   0.205   0.209   0.162   0.250   0.257   0.293   0.294   0.297   0.294
 1981 288   124   530   231     32     73    496     0     0   200    0.00   0.0   0.0   0.00   0.127   0.202   0.206   0.159   0.245   0.252   0.293   0.294   0.297   0.294
 1981 289   125   527   229     32     73    496     0     0   200    0.00   0.0   0.0   0.00   0.120   0.200   0.204   0.156   0.240   0.247   0.293   0.294   0.297   0.294
 1981 290   126   525   226     32     73    496     0     0   200    0.00   0.0   0.0   0.00   0.113   0.198   0.202   0.154   0.235   0.242   0.293   0.294   0.297   0.294
 1981 291   127   522   224     32     73    496     0     0   200    0.00   0.0   0.0   0.00   0.108   0.196   0.200   0.152   0.230   0.236   0.293   0.294   0.297   0.294
 1981 292   128   520   221     32     73    496     0     0   200    0.00   0.0   0.0   0.00   0.102   0.194   0.198   0.150   0.225   0.231   0.293   0.294   0.297   0.294
 1981 293   129   517   219     32     73    496     0     0   200    0.00   0.0   0.0   0.00   0.098   0.192   0.196   0.149   0.219   0.225   0.293   0.294   0.297   0.294
 1981 294   130   514   216     32     73    496     0     0   200    0.00   0.0   0.0   0.00   0.093   0.190   0.195   0.147   0.213   0.219   0.293   0.294   0.297   0.294
 1981 295   131   512   214     32     73    496     0     0   200    0.00   0.0   0.0   0.00   0.089   0.189   0.194   0.146   0.208   0.213   0.293   0.294   0.297   0.294
 1981 296   132   510   212     32     73    496     0     0   200    0.00   0.0   0.0   0.00   0.086   0.188   0.193   0.145   0.203   0.208   0.293   0.294   0.297   0.294
 1981 297   133   508   210     32     73    496     0     0   200    0.00   0.0   0.0   0.00   0.082   0.186   0.191   0.144   0.197   0.202   0.293   0.294   0.297   0.294
 1981 298   134   506   208     32     73    496     0     0   200    0.00   0.0   0.0   0.00   0.079   0.185   0.190   0.143   0.191   0.196   0.293   0.294   0.297   0.294
 1981 299   135   503   205     32     73    496     0     0   200    0.00   0.0   0.0   0.00   0.077   0.184   0.189   0.142   0.185   0.190   0.293   0.294   0.297   0.294
 1981 300   136   501   203     32     73    496     0     0   200    0.00   0.0   0.0   0.00   0.074   0.182   0.189   0.142   0.180   0.184   0.293   0.294   0.297   0.294
 1981 301   137   499   201     32     73    496     0     0   200    0.00   0.0   0.0   0.00   0.072   0.181   0.188   0.141   0.174   0.178   0.293   0.294   0.297   0.294
 1981 302   138   497   199     32     73    496     0     0   200    0.00   0.0   0.0   0.00   0.070   0.180   0.187   0.140   0.170   0.173   0.292   0.294   0.297   0.294
 1981 303   139   495   197     32     73    496     0     0   200    0.00   0.0   0.0   0.00   0.068   0.179   0.186   0.139   0.165   0.166   0.292   0.294   0.297   0.294
 1981 304   140   493   195     32     73    496     0     0   200    0.00   0.0   0.0   0.00   0.067   0.178   0.184   0.138   0.160   0.161   0.292   0.294   0.297   0.294
 1981 305   141   491   193     32     73    496     0     0   200    0.00   0.0   0.0   0.00   0.065   0.176   0.182   0.136   0.156   0.155   0.292   0.294   0.297   0.294

*DSSAT Cropping System Model Ver. 4.7.5.008 -release  MAY 04, 2021 17:13:31

*RUN   2        : ET-SIMAGRI                MZCER047 ETMZdddd    1
 MODEL          : MZCER047 - Maize
 EXPERIMENT     : ETMZdddd SN MELKSSAL
 DATA PATH      : C:\IRI\Python_Dash\ET_DSS_hist\TEST\
 TREATMENT  1   : ET-SIMAGRI                MZCER047
  
!                                                                                                 Soil water content (mm3/mm3) by soil depth (cm):
!                                                                                                 0-5    5-15   15-20   20-35   35-50   50-65   65-81   81-97  97-118 118-200
@YEAR DOY   DAS  SWTD  SWXD   ROFC   DRNC   PREC  IR#C  IRRC  DTWT    MWTD  TDFD  TDFC   ROFD    SW1D    SW2D    SW3D    SW4D    SW5D    SW6D    SW7D    SW8D    SW9D    SW10
 1982 164     0   586   288      0      0      0     0     0     0    0.00   0.0   0.0   0.00   0.231   0.231   0.231   0.221   0.316   0.316   0.304   0.304   0.305   0.305
 1982 165     1   585   287      0      0      0     0     0   100    0.00   0.0   0.0   0.00   0.215   0.230   0.231   0.221   0.316   0.316   0.304   0.304   0.305   0.305
 1982 166     2   584   286      0      0      0     0     0   200    0.00   0.0   0.0   0.00   0.200   0.229   0.230   0.221   0.316   0.316   0.304   0.304   0.305   0.305
 1982 167     3   583   285      0      0      0     0     0   200    0.00   0.0   0.0   0.00   0.186   0.228   0.230   0.221   0.316   0.316   0.304   0.304   0.305   0.305
 1982 168     4   583   284      0      0      0     0     0   200    0.00   0.0   0.0   0.00   0.174   0.227   0.230   0.220   0.316   0.316   0.304   0.304   0.305   0.305
 1982 169     5   582   284      0      0      0     0     0   200    0.00   0.0   0.0   0.00   0.162   0.226   0.229   0.220   0.316   0.316   0.304   0.304   0.305   0.305
 1982 170     6   581   283      0      0      0     0     0   200    0.00   0.0   0.0   0.00   0.152   0.225   0.229   0.220   0.315   0.316   0.304   0.304   0.305   0.305
 1982 171     7   585   287      0      0      5     0     0   200    0.00   0.0   0.0   0.00   0.240   0.224   0.229   0.220   0.315   0.316   0.304   0.304   0.305   0.305
 1982 172     8   584   286      0      0      5     0     0   200    0.00   0.0   0.0   0.00   0.223   0.223   0.228   0.220   0.315   0.316   0.304   0.304   0.305   0.305
 1982 173     9   583   285      0      0      5     0     0   200    0.00   0.0   0.0   0.00   0.207   0.222   0.228   0.220   0.315   0.316   0.304   0.304   0.305   0.305
 1982 174    10   582   284      0      0      5     0     0   200    0.00   0.0   0.0   0.00   0.192   0.221   0.228   0.220   0.315   0.315   0.304   0.304   0.305   0.305
 1982 175    11   582   283      0      0      5     0     0   200    0.00   0.0   0.0   0.00   0.179   0.219   0.227   0.219   0.315   0.315   0.304   0.304   0.305   0.305
 1982 176    12   581   283      0      0      5     0     0   200    0.00   0.0   0.0   0.00   0.168   0.218   0.227   0.219   0.315   0.315   0.304   0.304   0.305   0.305
 1982 177    13   580   282      0      0      5     0     0   200    0.00   0.0   0.0   0.00   0.157   0.216   0.226   0.219   0.315   0.315   0.304   0.304   0.305   0.305
 1982 178    14   579   281      0      0      5     0     0   200    0.00   0.0   0.0   0.00   0.147   0.215   0.225   0.219   0.315   0.315   0.304   0.304   0.305   0.305
 1982 179    15   586   288      0      0     13     0     0   200    0.00   0.0   0.0   0.00   0.266   0.225   0.224   0.219   0.315   0.315   0.304   0.304   0.305   0.305
 1982 180    16   585   287      0      0     18     0     0   200    0.00   0.0   0.0   0.00   0.282   0.245   0.220   0.216   0.311   0.312   0.301   0.302   0.303   0.303
 1982 181    17   587   288      0      0     25     0     0   200    0.00   0.0   0.0   0.00   0.311   0.263   0.249   0.213   0.308   0.310   0.299   0.300   0.301   0.302
 1982 182    18   582   284      0      0     25     0     0   200    0.00   0.0   0.0   0.00   0.261   0.254   0.255   0.218   0.305   0.307   0.297   0.298   0.300   0.301
 1982 183    19   576   278      0      0     25     0     0   200    0.00   0.0   0.0   0.00   0.239   0.244   0.249   0.215   0.302   0.305   0.295   0.296   0.299   0.299