*Soil Inorganic Nitrogen daily output file

*DSSAT Cropping System Model Ver. 4.7.5.008 -release  MAY 04, 2021 17:13:31

*RUN   1        : ET-SIMAGRI                MZCER047 ETMZdddd    1
 MODEL          : MZCER047 - Maize
 EXPERIMENT     : ETMZdddd SN MELKSSAL
 DATA PATH      : C:\IRI\Python_Dash\ET_DSS_hist\TEST\
 TREATMENT  1   : ET-SIMAGRI                MZCER047
  
!                                                                                                                              NO3 (ppm) at soil dep. (cm):                                                    NH4 (ppm) at soil dep. (cm):                                                    Total Inorganic N @dep(ppm):
!                                                                                                                               0-5    5-15   15-20   20-35   35-50   50-65   65-81   81-97  97-118 118-200     0-5    5-15   15-20   20-35   35-50   50-65   65-81   81-97  97-118 118-200     0-5    5-15   15-20   20-35   35-50   50-65   65-81   81-97  97-118 118-200
@YEAR DOY   DAS  NAPC  NI#M    NIAD    NITD    NHTD    NMNC    NITC    NDNC    NIMC    AMLC   NNMNC    NUCM    NLCC    TDFC    NI1D    NI2D    NI3D    NI4D    NI5D    NI6D    NI7D    NI8D    NI9D    NI10    NH1D    NH2D    NH3D    NH4D    NH5D    NH6D    NH7D    NH8D    NH9D    NH10    NT1D    NT2D    NT3D    NT4D    NT5D    NT6D    NT7D    NT8D    NT9D    NT10    
 1981 164     0     0     0    42.0    39.6     2.4    0.00    0.00    0.00    0.00    0.00    0.00    0.00    0.00    0.00   15.00    15.0    15.0    2.00    0.00    0.00    0.00    0.00    0.00    0.00    0.10    0.10    0.10    0.10    0.10    0.10    0.10    0.10    0.10    0.10   15.10   15.10   15.10    2.10    0.10    0.10    0.10    0.10    0.10    0.10
 1981 165     1     0     0    43.1    40.9     2.2    1.10    1.32    0.00    0.00    0.00    1.10    0.00    0.00    0.00   15.07    15.1    15.1    2.06    0.06    0.06    0.06    0.05    0.05    0.05    0.12    0.12    0.12    0.11    0.10    0.10    0.09    0.09    0.08    0.08   15.19   15.19   15.19    2.17    0.16    0.16    0.15    0.15    0.13    0.13
 1981 166     2     0     0    44.2    42.1     2.1    2.19    2.53    0.00    0.00    0.00    2.19    0.00    0.00    0.00   15.38    15.1    15.1    2.12    0.12    0.12    0.11    0.10    0.10    0.09    0.13    0.13    0.13    0.11    0.10    0.10    0.09    0.09    0.07    0.07   15.52   15.21   15.18    2.23    0.22    0.22    0.19    0.19    0.17    0.17
 1981 167     3     0     0    45.3    43.3     2.0    3.28    3.67    0.00    0.00    0.00    3.28    0.00    0.00    0.00   15.71    15.1    15.0    2.19    0.18    0.17    0.15    0.15    0.13    0.13    0.13    0.14    0.14    0.11    0.10    0.10    0.08    0.09    0.07    0.07   15.84   15.23   15.18    2.29    0.28    0.28    0.24    0.24    0.20    0.20
 1981 168     4     0     0    46.4    44.4     2.0    4.37    4.79    0.00    0.00    0.00    4.37    0.00    0.00    0.00   16.03    15.1    15.0    2.25    0.24    0.23    0.20    0.20    0.17    0.16    0.13    0.14    0.14    0.11    0.10    0.10    0.08    0.08    0.07    0.07   16.17   15.24   15.18    2.36    0.34    0.34    0.28    0.28    0.23    0.23
 1981 169     5     0     0    47.5    45.5     2.0    5.45    5.89    0.00    0.00    0.00    5.45    0.00    0.00    0.00   16.36    15.1    15.0    2.31    0.30    0.29    0.25    0.24    0.20    0.20    0.14    0.14    0.14    0.11    0.10    0.10    0.08    0.08    0.06    0.07   16.50   15.26   15.17    2.42    0.40    0.39    0.33    0.33    0.27    0.26
 1981 170     6     0     0    48.6    46.6     2.0    6.55    7.01    0.00    0.00    0.00    6.55    0.00    0.00    0.00   16.69    15.1    15.0    2.38    0.36    0.35    0.29    0.29    0.24    0.23    0.13    0.14    0.14    0.11    0.10    0.10    0.08    0.08    0.06    0.06   16.82   15.28   15.17    2.49    0.46    0.45    0.38    0.37    0.30    0.30
 1981 171     7     0     0    49.6    47.7     2.0    7.65    8.12    0.00    0.00    0.00    7.65    0.00    0.00    0.00   17.02    15.2    15.0    2.44    0.42    0.41    0.34    0.33    0.27    0.26    0.13    0.14    0.14    0.11    0.10    0.10    0.08    0.08    0.06    0.06   17.15   15.30   15.17    2.55    0.52    0.51    0.42    0.42    0.33    0.33
 1981 172     8     0     0    50.7    48.8     2.0    8.75    9.21    0.00    0.00    0.00    8.75    0.00    0.00    0.00   17.34    15.2    15.0    2.50    0.48    0.47    0.39    0.38    0.30    0.30    0.14    0.14    0.14    0.11    0.10    0.10    0.08    0.08    0.06    0.06   17.48   15.32   15.17    2.61    0.58    0.57    0.47    0.46    0.37    0.36
 1981 173     9     0     0    51.8    49.8     2.0    9.82   10.27    0.00    0.00    0.00    9.82    0.00    0.00    0.00   17.66    15.2    15.0    2.56    0.54    0.53    0.43    0.42    0.34    0.33    0.15    0.14    0.14    0.11    0.10    0.10    0.08    0.08    0.06    0.06   17.81   15.33   15.16    2.67    0.64    0.63    0.51    0.51    0.40    0.39
 1981 174    10     0     0    52.9    50.9     2.0   10.90   11.34    0.00    0.00    0.00   10.90    0.00    0.00    0.00   17.98    15.2    15.0    2.63    0.60    0.58    0.48    0.47    0.37    0.36    0.16    0.14    0.14    0.11    0.10    0.10    0.08    0.08    0.06    0.06   18.14   15.35   15.16    2.74    0.70    0.69    0.56    0.55    0.43    0.42
 1981 175    11     0     0    53.9    51.9     2.0   11.97   12.39    0.00    0.00    0.00   11.97    0.00    0.00    0.00   18.30    15.2    15.0    2.69    0.66    0.64    0.52    0.51    0.40    0.39    0.17    0.14    0.14    0.11    0.10    0.10    0.08    0.08    0.06    0.06   18.47   15.36   15.16    2.80    0.76    0.74    0.60    0.59    0.47    0.46
 1981 176    12     0     0    55.0    53.0     2.0   13.03   13.46    0.00    0.00    0.00   13.03    0.00    0.00    0.00   16.97    16.1    15.0    2.75    0.71    0.70    0.56    0.55    0.43    0.42    0.15    0.14    0.14    0.11    0.10    0.10    0.08    0.08    0.06    0.06   17.12   16.21   15.15    2.86    0.82    0.80    0.65    0.64    0.50    0.49
 1981 177    13     0     0    56.0    54.1     2.0   14.10   14.54    0.00    0.00    0.00   14.10    0.00    0.00    0.00   17.31    16.1    15.0    2.81    0.77    0.76    0.61    0.60    0.47    0.46    0.14    0.14    0.14    0.11    0.10    0.10    0.08    0.08    0.06    0.06   17.45   16.22   15.15    2.92    0.87    0.86    0.69    0.68    0.53    0.52
 1981 178    14     0     0    57.1    55.1     2.0   15.19   15.64    0.00    0.00    0.00   15.19    0.00    0.00    0.00   17.66    16.1    15.0    2.87    0.83    0.81    0.66    0.64    0.50    0.49    0.14    0.14    0.14    0.11    0.10    0.10    0.08    0.08    0.06    0.06   17.80   16.23   15.15    2.98    0.93    0.92    0.74    0.73    0.56    0.55
 1981 179    15     0     0    57.8    55.9     2.0   16.25   16.69    0.00    0.00    0.00   16.25    0.33    0.00    0.00   17.81    16.0    14.9    2.93    0.89    0.87    0.70    0.69    0.53    0.52    0.14    0.14    0.14    0.11    0.10    0.10    0.08    0.08    0.06    0.06   17.94   16.10   15.08    3.04    0.99    0.97    0.78    0.77    0.60    0.58
 1981 180    16     0     0    58.5    56.5     2.0   17.26   17.71    0.00    0.00    0.00   17.26    0.68    0.00    0.00   17.51    16.0    14.8    2.99    0.94    0.93    0.74    0.73    0.56    0.55    0.13    0.13    0.13    0.11    0.10    0.10    0.08    0.09    0.06    0.07   17.64   16.15   14.97    3.10    1.05    1.03    0.83    0.81    0.63    0.62
 1981 181    17     0     0    58.9    57.0     2.0   18.29   18.75    0.00    0.00    0.00   18.29    1.26    0.00    0.00   17.52    15.8    14.7    3.05    1.00    0.98    0.79    0.77    0.60    0.58    0.14    0.12    0.13    0.11    0.10    0.10    0.08    0.09    0.06    0.07   17.65   15.90   14.82    3.16    1.10    1.09    0.87    0.86    0.66    0.65
 1981 182    18     0     0    59.7    57.7     2.0   19.30   19.77    0.00    0.00    0.00   19.30    1.52    0.00    0.00   17.71    15.7    14.6    3.10    1.06    1.04    0.83    0.82    0.63    0.61    0.14    0.12    0.12    0.11    0.10    0.10    0.08    0.09    0.06    0.07   17.84   15.78   14.72    3.22    1.16    1.14    0.92    0.90    0.69    0.68
 1981 183    19     0     0    60.1    58.1     2.0   20.28   20.74    0.00    0.00    0.00   20.28    2.12    0.00    0.00   17.77    15.4    14.4    3.16    1.11    1.09    0.87    0.86    0.66    0.64    0.13    0.12    0.12    0.11    0.11    0.11    0.09    0.09    0.07    0.07   17.90   15.51   14.50    3.27    1.22    1.20    0.96    0.94    0.72    0.71
 1981 184    20     0     0    60.3    58.3     2.0   21.24   21.71    0.00    0.00    0.00   21.24    2.87    0.00    0.00   16.47    15.7    14.1    3.21    1.17    1.14    0.92    0.90    0.69    0.67    0.12    0.11    0.12    0.11    0.11    0.11    0.09    0.09    0.07    0.07   16.59   15.83   14.18    3.32    1.27    1.25    1.00    0.98    0.75    0.74
 1981 185    21     0     0    60.7    58.7     2.0   22.22   22.68    0.00    0.00    0.00   22.22    3.43    0.00    0.00   14.31    16.6    13.9    3.26    1.22    1.20    0.96    0.94    0.72    0.70    0.13    0.11    0.12    0.11    0.11    0.11    0.09    0.09    0.07    0.07   14.45   16.69   13.98    3.37    1.33    1.30    1.04    1.03    0.79    0.77
 1981 186    22     0     0    61.4    59.4     2.0   23.18   23.63    0.00    0.00    0.00   23.18    3.66    0.00    0.00   18.59    16.0    11.5    3.10    1.26    1.23    0.99    0.98    0.75    0.73    0.14    0.13    0.11    0.11    0.11    0.11    0.09    0.09    0.07    0.07   18.73   16.10   11.61    3.20    1.37    1.34    1.08    1.06    0.81    0.80
 1981 187    23     0     0    61.3    59.3     2.0   24.12   24.56    0.00    0.00    0.00   24.12    4.76    0.00    0.00   22.14    14.8     9.6    2.95    1.30    1.26    1.03    1.01    0.77    0.76    0.14    0.13    0.11    0.11    0.11    0.11    0.09    0.09    0.07    0.07   22.29   14.88    9.69    3.06    1.41    1.37    1.11    1.10    0.84    0.83
 1981 188    24     0     0    61.4    59.4     2.0   25.08   25.54    0.00    0.00    0.00   25.08    5.61    0.00    0.00   21.95    14.4     9.4    2.99    1.36    1.32    1.07    1.05    0.80    0.79    0.14    0.12    0.10    0.10    0.11    0.11    0.09    0.09    0.07    0.07   22.09   14.52    9.52    3.09    1.46    1.43    1.16    1.14    0.87    0.86
 1981 189    25     0     0    60.7    58.7     1.9   26.05   26.55    0.00    0.00    0.00   26.05    7.26    0.00    0.00   21.50    13.7     9.0    3.01    1.42    1.38    1.11    1.10    0.84    0.82    0.13    0.11    0.10    0.10    0.11    0.11    0.09    0.09    0.07    0.07   21.62   13.76    9.11    3.11    1.52    1.48    1.20    1.18    0.90    0.89
 1981 190    26     0     0    58.7    56.8     1.9   27.00   27.53    0.00    0.00    0.00   27.00   10.21    0.00    0.00   20.91    12.2     8.2    2.94    1.47    1.43    1.16    1.14    0.87    0.85    0.11    0.10    0.09    0.10    0.11    0.11    0.09    0.09    0.07    0.07   21.02   12.33    8.26    3.04    1.58    1.54    1.24    1.23    0.93    0.92
 1981 191    27     0     0    58.7    56.9     1.9   27.92   28.46    0.00    0.00    0.00   27.92   11.04    0.00    0.00   15.39    14.6     7.9    2.93    1.53    1.48    1.20    1.18    0.90    0.88    0.10    0.10    0.09    0.10    0.11    0.11    0.09    0.09    0.07    0.07   15.49   14.73    7.97    3.03    1.63    1.59    1.29    1.27    0.96    0.95
 1981 192    28     0     0    58.6    56.7     1.9   28.86   29.36    0.00    0.00    0.00   28.86   12.15    0.00    0.00    8.96    14.4    12.3    3.24    1.58    1.54    1.24    1.22    0.93    0.91    0.13    0.12    0.09    0.09    0.11    0.11    0.09    0.09    0.07    0.07    9.09   14.53   12.43    3.33    1.68    1.64    1.33    1.31    1.00    0.98
 1981 193    29     0     0    58.0    56.0     2.0   29.80   30.23    0.00    0.00    0.00   29.80   13.69    0.00    0.00    5.43     9.7    12.9    6.02    2.28    1.62    1.28    1.26    0.96    0.94    0.16    0.14    0.12    0.10    0.11    0.11    0.09    0.09    0.07    0.07    5.59    9.85   13.02    6.11    2.38    1.72    1.36    1.35    1.02    1.01
 1981 194    30     0     0    56.8    54.7     2.1   30.73   31.05    0.00    0.00    0.00   30.73   15.67    0.08    0.00    5.57     8.0     9.7    6.02    3.10    1.88    1.43    1.33    1.00    0.98    0.18    0.16    0.15    0.11    0.12    0.11    0.09    0.09    0.07    0.07    5.75    8.15    9.82    6.13    3.22    1.99    1.52    1.42    1.07    1.05
 1981 195    31     0     0    54.8    52.6     2.1   31.66   31.97    0.00    0.00    0.00   31.66   18.69    0.08    0.00    6.20     6.9     7.9    5.59    3.19    1.94    1.48    1.37    1.03    1.01    0.17    0.16    0.15    0.11    0.12    0.11    0.09    0.09    0.07    0.07    6.37    7.02    8.02    5.70    3.31    2.05    1.56    1.46    1.10    1.08
 1981 196    32     0     0    53.4    51.3     2.1   32.61   32.93    0.00    0.00    0.00   32.61   20.96    0.08    0.00    6.60     6.2     6.9    5.21    3.20    1.97    1.51    1.40    1.06    1.04    0.16    0.15    0.15    0.12    0.12    0.11    0.09    0.09    0.07    0.07    6.76    6.34    7.07    5.32    3.32    2.08    1.60    1.49    1.12    1.10
 1981 197    33     0     0    51.8    49.7     2.1   33.57   33.91    0.00    0.00    0.00   33.57   23.59    0.08    0.00    5.96     5.4     6.1    4.89    3.25    2.03    1.55    1.45    1.09    1.07    0.15    0.15    0.15    0.12    0.11    0.11    0.09    0.09    0.07    0.07    6.11    5.59    6.24    5.01    3.36    2.14    1.64    1.53    1.15    1.13
 1981 198    34     0     0    49.4    47.3     2.1   34.53   34.89    0.00    0.00    0.00   34.53   26.94    0.08    0.00    4.25     5.0     5.0    4.42    3.30    2.08    1.59    1.49    1.12    1.10    0.14    0.14    0.15    0.12    0.11    0.11    0.09    0.09    0.07    0.07    4.39    5.16    5.13    4.54    3.41    2.19    1.68    1.57    1.18    1.16
 1981 199    35     0     0    47.2    45.2     2.1   35.51   35.87    0.00    0.00    0.00   35.51   30.03    0.08    0.00    2.44     4.1     4.8    4.12    3.34    2.13    1.63    1.53    1.15    1.13    0.15    0.15    0.14    0.12    0.11    0.11    0.09    0.09    0.07    0.07    2.59    4.28    4.93    4.24    3.45    2.24    1.72    1.61    1.21    1.19
 1981 200    36     0     0    44.7    42.6     2.1   36.47   36.82    0.00    0.00    0.00   36.47   33.56    0.08    0.00    2.01     3.0     3.5    3.64    3.41    2.20    1.67    1.56    1.18    1.15    0.17    0.15    0.14    0.12    0.11    0.11    0.09    0.09    0.07    0.07    2.19    3.12    3.67    3.76    3.52    2.30    1.76    1.65    1.24    1.22
 1981 201    37     0     0    42.2    40.1     2.1   37.43   37.77    0.00    0.00    0.00   37.43   36.97    0.08    0.00    1.32     2.1     2.7    3.09    3.41    2.23    1.71    1.60    1.20    1.18    0.16    0.15    0.15    0.12    0.11    0.11    0.09    0.09    0.07    0.07    1.48    2.25    2.81    3.20    3.52    2.34    1.80    1.69    1.27    1.25
 1981 202    38     0     0    39.8    37.7     2.1   38.38   38.70    0.00    0.00    0.00   38.38   40.32    0.08    0.00    0.86     1.3     1.6    2.38    3.40    2.32    1.78    1.65    1.24    1.21    0.18    0.15    0.15    0.12    0.11    0.11    0.09    0.09    0.07    0.07    1.04    1.42    1.79    2.50    3.51    2.43    1.87    1.74    1.31    1.28
 1981 203    39     0     0    37.2    35.1     2.1   39.32   39.65    0.00    0.00    0.00   39.32   43.89    0.08    0.00    0.45     0.6     0.8    1.60    3.34    2.36    1.81    1.69    1.27    1.24    0.17    0.15    0.15    0.12    0.11    0.11    0.09    0.09    0.07    0.07    0.61    0.70    0.90    1.71    3.45    2.47    1.90    1.78    1.33    1.31
 1981 204    40     0     0    36.1    34.0     2.1   40.26   40.59    0.00    0.00    0.00   40.26   45.89    0.08    0.00    0.21     0.3     0.4    1.09    3.25    2.43    1.87    1.73    1.30    1.27    0.16    0.15    0.15    0.12    0.11    0.11    0.09    0.09    0.07    0.07    0.37    0.46    0.59    1.21    3.36    2.54    1.95    1.81    1.36    1.33
 1981 205    41     0     0    35.9    33.7     2.2   41.19   41.45    0.00    0.00    0.00   41.19   47.06    0.08    0.00    0.20     0.3     0.3    0.75    3.02    2.55    1.95    1.78    1.33    1.29    0.18    0.16    0.16    0.12    0.12    0.12    0.09    0.09    0.07    0.07    0.38    0.45    0.51    0.87    3.14    2.66    2.04    1.87    1.40    1.36
 1981 206    42     0     0    35.9    33.7     2.2   42.13   42.31    0.00    0.00    0.00   42.13   47.97    0.08    0.00    0.20     0.3     0.3    0.53    2.69    2.64    2.07    1.86    1.37    1.34    0.19    0.18    0.18    0.12    0.12    0.12    0.09    0.09    0.07    0.07    0.39    0.46    0.50    0.66    2.81    2.76    2.16    1.95    1.44    1.41
 1981 207    43     0     0    36.1    33.8     2.3   43.07   43.17    0.00    0.00    0.00   43.07   48.71    0.08    0.00    0.20     0.3     0.3    0.40    2.35    2.68    2.19    1.94    1.41    1.38    0.20    0.18    0.19    0.13    0.13    0.13    0.09    0.09    0.08    0.07    0.40    0.47    0.51    0.53    2.49    2.81    2.29    2.03    1.49    1.45
 1981 208    44     0     0    36.4    33.9     2.4   43.98   43.98    0.00    0.00    0.00   43.98   49.35    0.08    0.00    0.22     0.3     0.3    0.32    2.06    2.66    2.30    2.02    1.45    1.41    0.21    0.19    0.20    0.13    0.14    0.14    0.10    0.10    0.08    0.08    0.43    0.48    0.51    0.45    2.20    2.79    2.40    2.12    1.54    1.49
 1981 209    45     0     0    36.7    34.2     2.5   44.90   44.80    0.02    0.00    0.00   44.90   49.84    0.16    0.00    0.25     0.3     0.3    0.31    1.84    2.59    2.36    2.09    1.50    1.45    0.22    0.18    0.20    0.13    0.14    0.14    0.10    0.10    0.08    0.08    0.47    0.49    0.52    0.45    1.98    2.73    2.46    2.19    1.58    1.53
 1981 210    46     0     0    36.9    34.3     2.6   45.80   45.66    0.04    0.00    0.00   45.80   50.40    0.28    0.00    0.23     0.3     0.3    0.32    1.65    2.47    2.41    2.15    1.53    1.48    0.22    0.18    0.20    0.13    0.14    0.14    0.10    0.10    0.09    0.09    0.45    0.49    0.54    0.45    1.80    2.62    2.51    2.25    1.62    1.57
 1981 211    47     0     0    36.9    34.3     2.6   46.69   46.49    0.07    0.00    0.00   46.69   51.03    0.45    0.00    0.18     0.3     0.3    0.32    1.44    2.33    2.48    2.23    1.58    1.52    0.23    0.18    0.21    0.13    0.14    0.14    0.10    0.10    0.09    0.09    0.41    0.45    0.51    0.45    1.59    2.48    2.58    2.33    1.67    1.61
 1981 212    48     0     0    37.1    34.4     2.7   47.58   47.28    0.11    0.00    0.00   47.58   51.54    0.65    0.00    0.21     0.3     0.3    0.29    1.26    2.15    2.50    2.30    1.62    1.56    0.23    0.20    0.21    0.14    0.15    0.15    0.10    0.10    0.09    0.09    0.45    0.47    0.52    0.43    1.41    2.30    2.60    2.40    1.72    1.65
 1981 213    49     0     0    37.2    34.5     2.7   48.47   48.13    0.15    0.00    0.00   48.47   52.01    0.88    0.00    0.25     0.3     0.3    0.30    1.13    1.97    2.47    2.35    1.67    1.59    0.23    0.19    0.22    0.14    0.15    0.15    0.10    0.10    0.09    0.09    0.48    0.50    0.53    0.44    1.29    2.12    2.58    2.46    1.76    1.69
 1981 214    50     0     0    37.3    34.5     2.7   49.37   49.03    0.19    0.00    0.00   49.37   52.52    1.16    0.00    0.18     0.3     0.3    0.32    1.02    1.81    2.45    2.41    1.71    1.63    0.23    0.18    0.21    0.14    0.15    0.15    0.10    0.10    0.09    0.09    0.41    0.45    0.55    0.46    1.17    1.96    2.56    2.51    1.81    1.73
 1981 215    51     0     0    35.8    32.9     2.8   50.28   49.85    0.24    0.00    0.00   50.28   53.03    3.01    0.00    0.23     0.3     0.3    0.27    0.83    1.47    2.16    2.28    1.69    1.63    0.23    0.19    0.22    0.15    0.16    0.16    0.11    0.11    0.10    0.09    0.47    0.47    0.50    0.42    0.98    1.62    2.26    2.38    1.79    1.72
 1981 216    52     0     0    35.7    33.0     2.7   51.19   50.87    0.26    0.00    0.00   51.19   53.37    3.62    0.00    0.34     0.3     0.3    0.31    0.79    1.36    2.08    2.25    1.70    1.64    0.20    0.18    0.19    0.14    0.15    0.15    0.10    0.10    0.09    0.09    0.54    0.51    0.53    0.45    0.94    1.51    2.19    2.35    1.80    1.73
 1981 217    53     0     0    36.0    33.4     2.6   52.11   51.91    0.26    0.00    0.00   52.11   53.90    3.69    0.00    0.35     0.3     0.3    0.31    0.81    1.32    2.10    2.27    1.73    1.67    0.18    0.17    0.17    0.13    0.13    0.14    0.10    0.10    0.09    0.09    0.53    0.50    0.51    0.45    0.94    1.46    2.20    2.37    1.82    1.76
 1981 218    54     0     0    36.3    33.8     2.5   53.05   52.95    0.27    0.00    0.00   53.05   54.46    3.73    0.00    0.21     0.3     0.4    0.33    0.82    1.30    2.14    2.31    1.76    1.70    0.17    0.16    0.16    0.13    0.12    0.13    0.10    0.10    0.09    0.09    0.38    0.48    0.55    0.46    0.94    1.43    2.24    2.40    1.85    1.79
 1981 219    55     0     0    36.3    33.8     2.5   53.98   53.88    0.27    0.00    0.00   53.98   55.00    4.11    0.00    0.25     0.3     0.3    0.30    0.77    1.21    2.08    2.32    1.79    1.73    0.19    0.17    0.18    0.12    0.12    0.13    0.10    0.10    0.09    0.09    0.44    0.46    0.47    0.43    0.88    1.34    2.17    2.41    1.88    1.82
 1981 220    56     0     0    36.9    34.5     2.4   54.93   54.88    0.27    0.00    0.00   54.93   55.39    4.11    0.00    0.34     0.3     0.3    0.32    0.77    1.19    2.12    2.35    1.82    1.76    0.17    0.16    0.17    0.12    0.11    0.12    0.09    0.09    0.09    0.09    0.52    0.49    0.49    0.44    0.88    1.31    2.21    2.45    1.90    1.85
 1981 221    57     0     0    37.3    34.9     2.4   55.87   55.87    0.27    0.00    0.00   55.87   55.92    4.11    0.00    0.35     0.3     0.3    0.31    0.77    1.17    2.16    2.39    1.85    1.79    0.16    0.16    0.16    0.12    0.11    0.12    0.09    0.09    0.09    0.09    0.51    0.48    0.49    0.43    0.88    1.29    2.25    2.48    1.93    1.87
 1981 222    58     0     0    37.7    35.4     2.4   56.83   56.85    0.27    0.00    0.00   56.83   56.45    4.11    0.00    0.35     0.3     0.3    0.31    0.78    1.15    2.20    2.43    1.87    1.82    0.16    0.15    0.16    0.12    0.11    0.11    0.09    0.09    0.09    0.09    0.50    0.48    0.48    0.43    0.88    1.27    2.29    2.52    1.96    1.90
 1981 223    59     0     0    38.2    35.8     2.3   57.78   57.84    0.27    0.00    0.00   57.78   56.97    4.11    0.00    0.31     0.3     0.3    0.31    0.78    1.13    2.24    2.47    1.90    1.85    0.15    0.14    0.15    0.12    0.11    0.11    0.09    0.09    0.09    0.09    0.46    0.49    0.47    0.43    0.88    1.24    2.33    2.56    1.99    1.93
 1981 224    60     0     0    38.6    36.3     2.3   58.73   58.80    0.28    0.00    0.00   58.73   57.48    4.11    0.00    0.23     0.3     0.4    0.32    0.77    1.11    2.28    2.51    1.93    1.87    0.15    0.15    0.14    0.12    0.11    0.11    0.09    0.09    0.08    0.09    0.39    0.48    0.51    0.44    0.88    1.22    2.37    2.60    2.02    1.96
 1981 225    61     0     0    39.0    36.7     2.4   59.68   59.72    0.28    0.00    0.00   59.68   57.98    4.11    0.00    0.21     0.3     0.3    0.33    0.78    1.09    2.32    2.55    1.96    1.90    0.18    0.15    0.14    0.12    0.11    0.11    0.09    0.09    0.08    0.09    0.38    0.46    0.48    0.45    0.89    1.20    2.41    2.64    2.05    1.99
 1981 226    62     0     0    39.5    37.1     2.4   60.61   60.64    0.28    0.00    0.00   60.61   58.45    4.11    0.00    0.23     0.3     0.3    0.32    0.79    1.07    2.36    2.58    2.00    1.93    0.19    0.16    0.16    0.12    0.11    0.11    0.09    0.09    0.08    0.09    0.43    0.46    0.47    0.44    0.90    1.18    2.45    2.67    2.07    2.02
 1981 227    63     0     0    40.0    37.7     2.3   61.54   61.63    0.28    0.00    0.00   61.54   58.87    4.11    0.00    0.29     0.3     0.3    0.30    0.79    1.08    2.40    2.62    2.03    1.96    0.20    0.16    0.17    0.12    0.11    0.11    0.09    0.09    0.07    0.09    0.49    0.47    0.47    0.42    0.90    1.19    2.48    2.71    2.10    2.04
 1981 228    64     0     0    40.5    38.3     2.2   62.47   62.65    0.28    0.00    0.00   62.47   59.30    4.11    0.00    0.32     0.3     0.3    0.31    0.78    1.06    2.43    2.66    2.06    1.99    0.18    0.16    0.16    0.12    0.11    0.11    0.09    0.09    0.07    0.08    0.50    0.49    0.50    0.43    0.89    1.17    2.52    2.74    2.13    2.07
 1981 229    65     0     0    40.9    38.7     2.2   63.39   63.60    0.28    0.00    0.00   63.39   59.81    4.11    0.00    0.29     0.3     0.3    0.31    0.78    1.04    2.47    2.69    2.09    2.02    0.18    0.16    0.16    0.12    0.11    0.11    0.09    0.09    0.07    0.07    0.47    0.48    0.49    0.43    0.89    1.15    2.56    2.78    2.15    2.10
 1981 230    66     0     0    41.3    39.2     2.1   64.32   64.56    0.28    0.00    0.00   64.32   60.29    4.11    0.00    0.28     0.3     0.3    0.32    0.79    1.03    2.51    2.73    2.11    2.05    0.18    0.15    0.16    0.12    0.11    0.11    0.09    0.09    0.07    0.07    0.45    0.48    0.50    0.44    0.90    1.14    2.60    2.82    2.18    2.12
 1981 231    67     0     0    41.8    39.7     2.1   65.27   65.53    0.28    0.00    0.00   65.27   60.77    4.11    0.00    0.30     0.3     0.3    0.32    0.79    1.03    2.55    2.76    2.14    2.08    0.19    0.15    0.16    0.12    0.11    0.11    0.09    0.09    0.07    0.07    0.49    0.47    0.47    0.44    0.90    1.14    2.63    2.85    2.21    2.15
 1981 232    68     0     0    42.3    40.2     2.1   66.24   66.53    0.28    0.00    0.00   66.24   61.25    4.11    0.00    0.33     0.3     0.3    0.31    0.79    1.02    2.58    2.80    2.17    2.11    0.17    0.15    0.15    0.12    0.11    0.11    0.09    0.09    0.07    0.07    0.50    0.48    0.49    0.43    0.90    1.13    2.67    2.89    2.24    2.18
 1981 233    69     0     0    42.7    40.6     2.1   67.20   67.51    0.28    0.00    0.00   67.20   61.77    4.11    0.00    0.33     0.3     0.3    0.31    0.79    1.02    2.62    2.84    2.20    2.14    0.17    0.15    0.15    0.12    0.11    0.11    0.09    0.09    0.07    0.07    0.50    0.48    0.48    0.43    0.90    1.12    2.71    2.93    2.26    2.21
 1981 234    70     0     0    43.2    41.1     2.1   68.18   68.50    0.28    0.00    0.00   68.18   62.27    4.11    0.00    0.22     0.3     0.4    0.35    0.80    1.01    2.66    2.87    2.22    2.17    0.16    0.15    0.15    0.12    0.11    0.11    0.09    0.09    0.07    0.07    0.37    0.46    0.52    0.46    0.91    1.12    2.75    2.96    2.29    2.24
 1981 235    71     0     0    43.6    41.5     2.1   69.14   69.42    0.28    0.00    0.00   69.14   62.79    4.11    0.00    0.25     0.3     0.3    0.30    0.76    1.05    2.69    2.94    2.27    2.20    0.18    0.17    0.17    0.12    0.11    0.11    0.09    0.09    0.07    0.07    0.44    0.45    0.45    0.42    0.87    1.15    2.77    3.03    2.33    2.26
 1981 236    72     0     0    44.2    42.1     2.1   70.09   70.38    0.28    0.00    0.00   70.09   63.14    4.11    0.00    0.34     0.3     0.3    0.31    0.76    1.04    2.72    2.98    2.29    2.22    0.17    0.16    0.17    0.12    0.11    0.11    0.09    0.09    0.07    0.07    0.51    0.48    0.49    0.43    0.87    1.15    2.81    3.07    2.36    2.29
 1981 237    73     0     0    44.7    42.6     2.1   71.01   71.31    0.28    0.00    0.00   71.01   63.64    4.11    0.00    0.34     0.3     0.3    0.31    0.76    1.03    2.76    3.01    2.32    2.25    0.16    0.16    0.16    0.12    0.11    0.11    0.09    0.09    0.07    0.07    0.51    0.48    0.48    0.43    0.87    1.13    2.85    3.10    2.39    2.32
 1981 238    74     0     0    45.1    43.0     2.1   71.93   72.23    0.28    0.00    0.00   71.93   64.13    4.11    0.00    0.23     0.3     0.4    0.32    0.76    1.01    2.80    3.05    2.35    2.28    0.16    0.15    0.16    0.12    0.11    0.11    0.09    0.09    0.07    0.07    0.38    0.48    0.51    0.44    0.87    1.11    2.89    3.14    2.42    2.35
 1981 239    75     0     0    45.5    43.4     2.1   72.85   73.13    0.28    0.00    0.00   72.85   64.62    4.11    0.00    0.27     0.3     0.3    0.31    0.76    1.02    2.84    3.09    2.37    2.31    0.18    0.16    0.16    0.12    0.11    0.11    0.09    0.09    0.07    0.07    0.45    0.46    0.47    0.43    0.87    1.13    2.93    3.18    2.44    2.37
 1981 240    76     0     0    46.0    43.9     2.1   73.78   74.08    0.28    0.00    0.00   73.78   65.03    4.11    0.00    0.34     0.3     0.3    0.31    0.76    1.01    2.87    3.12    2.40    2.33    0.17    0.15    0.16    0.12    0.11    0.11    0.09    0.09    0.07    0.07    0.51    0.48    0.48    0.43    0.87    1.12    2.96    3.21    2.47    2.40
 1981 241    77     0     0    46.5    44.4     2.1   74.73   75.03    0.28    0.00    0.00   74.73   65.53    4.11    0.00    0.36     0.3     0.3    0.31    0.76    1.01    2.91    3.15    2.43    2.36    0.16    0.15    0.15    0.12    0.11    0.11    0.09    0.09    0.07    0.07    0.51    0.47    0.48    0.43    0.87    1.12    3.00    3.24    2.49    2.43