*PLANT N OUTPUT FILE

*DSSAT Cropping System Model Ver. 4.7.5.008 -release  MAY 04, 2021 17:13:31

*RUN   1        : ET-SIMAGRI                MZCER047 ETMZdddd    1
 MODEL          : MZCER047 - Maize
 EXPERIMENT     : ETMZdddd SN MELKSSAL
 DATA PATH      : C:\IRI\Python_Dash\ET_DSS_hist\TEST\
 TREATMENT  1   : ET-SIMAGRI                MZCER047
  
@YEAR DOY   DAS   DAP   CNAD   GNAD   VNAD   GN%D   VN%D   NUPC   LNAD   SNAD   LN%D   SN%D   RN%D   SNN0C   SNN1C
 1981 166     2     0    0.0    0.0    0.0   0.00   0.00    0.0    0.0    0.0    0.0   0.00   0.00    0.00    0.00
 1981 167     3     1    0.0    0.0    0.0   0.00   0.00    0.0    0.0    0.0    0.0   0.00   0.00    0.00    0.00
 1981 168     4     2    0.0    0.0    0.0   0.00   0.00    0.0    0.0    0.0    0.0   0.00   0.00    0.00    0.00
 1981 169     5     3    0.0    0.0    0.0   0.00   0.00    0.0    0.0    0.0    0.0   0.00   0.00    0.00    0.00
 1981 170     6     4    0.0    0.0    0.0   0.00   0.00    0.0    0.0    0.0    0.0   0.00   0.00    0.00    0.00
 1981 171     7     5    1.1    0.0    1.1   0.00   4.40    0.0    0.5    0.5    4.4   4.40   2.20    0.00    0.00
 1981 172     8     6    1.1    0.0    1.1   0.00   4.40    0.0    0.5    0.5    4.4   4.40   2.16    0.00    0.00
 1981 173     9     7    1.1    0.0    1.1   0.00   4.40    0.0    0.5    0.5    4.4   4.40   2.06    0.00    0.00
 1981 174    10     8    1.1    0.0    1.1   0.00   4.40    0.0    0.5    0.5    4.4   4.40   1.91    0.00    0.00
 1981 175    11     9    1.1    0.0    1.1   0.00   4.40    0.0    0.5    0.5    4.4   4.40   1.75    0.00    0.00
 1981 176    12    10    1.1    0.0    1.1   0.00   4.07    0.0    0.6    0.5    4.1   4.07   1.56    0.00    0.00
 1981 177    13    11    1.1    0.0    1.1   0.00   3.14    0.0    0.7    0.4    3.1   3.14   1.47    0.00    0.00
 1981 178    14    12    1.4    0.0    1.4   0.00   3.39    0.3    1.0    0.4    3.4   3.39   1.20    0.00    0.00
 1981 179    15    13    1.7    0.0    1.7   0.00   3.29    0.7    1.3    0.4    3.3   3.29   1.23    0.00    0.00
 1981 180    16    14    2.2    0.0    2.2   0.00   3.61    1.3    1.8    0.4    3.6   3.61   1.53    0.00    0.00
 1981 181    17    15    2.5    0.0    2.5   0.00   3.25    1.5    2.1    0.4    3.3   3.25   1.30    0.00    0.01
 1981 182    18    16    3.1    0.0    3.1   0.00   3.38    2.1    2.7    0.4    3.4   3.38   1.21    0.00    0.01
 1981 183    19    17    3.6    0.0    3.6   0.00   3.60    2.9    3.2    0.4    3.6   3.60   1.49    0.00    0.01
 1981 184    20    18    4.0    0.0    4.0   0.00   3.65    3.4    3.5    0.4    3.6   3.65   1.71    0.00    0.01
 1981 185    21    19    4.3    0.0    4.3   0.00   3.21    3.7    3.9    0.4    3.2   3.21   1.34    0.00    0.02
 1981 186    22    20    5.2    0.0    5.2   0.00   3.38    4.8    4.8    0.4    3.4   3.38   1.43    0.00    0.02
 1981 187    23    21    5.9    0.0    5.9   0.00   3.15    5.6    5.6    0.4    3.2   3.15   1.33    0.00    0.02
 1981 188    24    22    7.2    0.0    7.2   0.00   3.28    7.3    6.8    0.4    3.3   3.28   1.47    0.00    0.03
 1981 189    25    23   10.0    0.0   10.0   0.00   4.05   10.2    9.5    0.5    4.0   4.05   1.42    0.00    0.04
 1981 190    26    24   10.7    0.0   10.7   0.00   3.91   11.0   10.3    0.5    3.9   3.91   1.31    0.00    0.04
 1981 191    27    25   11.5    0.0   11.5   0.00   3.81   12.1   11.0    0.5    3.8   3.81   1.38    0.00    0.05
 1981 192    28    26   13.2    0.0   13.2   0.00   3.77   13.7   12.7    0.5    3.8   3.77   1.17    0.00    0.06
 1981 193    29    27   15.1    0.0   15.1   0.00   3.72   15.7   14.6    0.5    3.7   3.72   1.18    0.00    0.07
 1981 194    30    28   17.5    0.0   17.5   0.00   3.68   18.7   17.0    0.6    3.7   3.68   1.32    0.00    0.08
 1981 195    31    29   19.6    0.0   19.6   0.00   3.61   21.0   19.0    0.7    3.6   3.61   1.27    0.00    0.09
 1981 196    32    30   22.0    0.0   22.0   0.00   3.56   23.6   21.2    0.9    3.6   3.56   1.25    0.00    0.10
 1981 197    33    31   25.1    0.0   25.1   0.00   3.53   26.9   23.9    1.1    3.5   3.53   1.26    0.00    0.12
 1981 198    34    32   28.1    0.0   28.1   0.00   3.47   30.0   26.6    1.5    3.5   3.47   1.20    0.00    0.13
 1981 199    35    33   31.2    0.0   31.2   0.00   3.42   33.6   29.2    2.0    3.4   3.42   1.25    0.00    0.15
 1981 200    36    34   34.4    0.0   34.4   0.00   3.37   37.0   31.9    2.5    3.4   3.37   1.21    0.00    0.17
 1981 201    37    35   37.7    0.0   37.7   0.00   3.33   40.3   34.5    3.2    3.3   3.33   1.17    0.00    0.18
 1981 202    38    36   40.9    0.0   40.9   0.00   3.25   43.9   36.8    4.0    3.2   3.25   1.19    0.00    0.20
 1981 203    39    37   42.8    0.0   42.8   0.00   3.10   45.9   38.0    4.8    3.1   3.10   1.15    0.00    0.22
 1981 204    40    38   43.8    0.0   43.8   0.00   2.91   47.1   38.3    5.5    2.9   2.91   1.09    0.00    0.25
 1981 205    41    39   44.6    0.0   44.6   0.00   2.71   48.0   38.3    6.3    2.7   2.71   1.02    0.00    0.27
 1981 206    42    40   45.2    0.0   45.2   0.00   2.53   48.7   38.2    7.0    2.5   2.53   0.97    0.00    0.29
 1981 207    43    41   45.8    0.0   45.8   0.00   2.41   49.3   38.2    7.6    2.4   2.41   0.96    0.00    0.31
 1981 208    44    42   46.2    0.0   46.2   0.00   2.28   49.8   37.9    8.3    2.3   2.28   0.90    0.00    0.33
 1981 209    45    43   46.7    0.0   46.7   0.00   2.17   50.4   37.7    9.0    2.2   2.17   0.85    0.00    0.36
 1981 210    46    44   47.3    0.0   47.3   0.00   2.07   51.0   37.6    9.7    2.1   2.07   0.85    0.00    0.38
 1981 211    47    45   47.7    0.0   47.7   0.00   1.99   51.5   37.4   10.4    2.0   1.99   0.83    0.00    0.40
 1981 212    48    46   48.2    0.0   48.2   0.00   1.91   52.0   37.2   11.0    1.9   1.91   0.82    0.00    0.43
 1981 213    49    47   48.6    0.0   48.6   0.00   1.84   52.5   36.9   11.7    1.8   1.84   0.78    0.00    0.45
 1981 214    50    48   49.1    0.0   49.1   0.00   1.78   53.0   37.0   12.0    1.8   1.78   0.78    0.00    0.48
 1981 215    51    49   49.4    0.0   49.4   0.00   1.68   53.4   36.5   12.9    1.7   1.68   0.77    0.00    0.50
 1981 216    52    50   49.9    0.0   49.9   0.00   1.61   53.9   36.1   13.8    1.6   1.61   0.77    0.00    0.52
 1981 217    53    51   50.4    0.0   50.4   0.00   1.56   54.5   35.7   14.7    1.6   1.56   0.75    0.00    0.55
 1981 218    54    52   50.8    0.0   50.8   0.00   1.51   55.0   35.4   15.5    1.5   1.51   0.73    0.00    0.57
 1981 219    55    53   51.2    0.0   51.2   0.00   1.47   55.4   35.0   16.1    1.5   1.47   0.69    0.00    0.60
 1981 220    56    54   51.6    0.0   51.6   0.00   1.45   55.9   34.9   16.8    1.4   1.45   0.66    0.00    0.62
 1981 221    57    55   52.1    0.0   52.1   0.00   1.42   56.4   34.7   17.4    1.4   1.42   0.64    0.00    0.65
 1981 222    58    56   52.6    0.0   52.6   0.00   1.39   57.0   34.5   18.1    1.4   1.39   0.62    0.00    0.67
 1981 223    59    57   53.0    0.0   53.0   0.00   1.37   57.5   34.4   18.6    1.4   1.37   0.62    0.00    0.70
 1981 224    60    58   53.4    0.0   53.4   0.00   1.35   58.0   34.3   19.2    1.4   1.35   0.62    0.00    0.72
 1981 225    61    59   53.9    0.0   53.9   0.00   1.34   58.5   34.3   19.6    1.3   1.34   0.60    0.00    0.75
 1981 226    62    60   54.2    0.0   54.2   0.00   1.32   58.9   34.3   19.9    1.3   1.32   0.58    0.00    0.77
 1981 227    63    61   54.6    0.0   54.6   0.00   1.32   59.3   34.4   20.2    1.3   1.32   0.57    0.00    0.80
 1981 228    64    62   55.0    0.0   55.0   0.00   1.31   59.8   34.5   20.5    1.3   1.31   0.57    0.00    0.83
 1981 229    65    63   55.4    0.0   55.4   0.00   1.30   60.3   34.7   20.7    1.3   1.30   0.56    0.00    0.85
 1981 230    66    64   55.8    0.0   55.8   0.00   1.29   60.8   34.8   21.0    1.3   1.29   0.54    0.00    0.88
 1981 231    67    65   56.2    0.0   56.2   0.00   1.28   61.2   34.8   21.4    1.3   1.28   0.52    0.00    0.91
 1981 232    68    66   56.6    0.0   56.6   0.00   1.27   61.8   34.9   21.7    1.3   1.27   0.51    0.00    0.93
 1981 233    69    67   57.0    0.0   57.0   0.00   1.26   62.3   35.0   22.1    1.3   1.26   0.50    0.00    0.96
 1981 234    70    68   57.5    0.0   57.5   0.00   1.26   62.8   34.4   23.1    1.3   1.26   0.50    0.00    0.99
 1981 235    71    69   57.8    0.0   57.8   0.00   1.24   63.1   33.7   24.1    1.2   1.24   0.51    0.00    1.02
 1981 236    72    70   58.2    0.0   58.2   0.00   1.24   63.6   33.1   25.1    1.2   1.24   0.51    0.00    1.05
 1981 237    73    71   58.6    0.0   58.6   0.00   1.23   64.1   32.5   26.1    1.2   1.23   0.52    0.00    1.07
 1981 238    74    72   59.0    0.0   59.0   0.00   1.23   64.6   31.9   27.1    1.2   1.23   0.52    0.00    1.10
 1981 239    75    73   59.3    0.0   59.3   0.00   1.22   65.0   31.3   28.1    1.2   1.22   0.52    0.00    1.13
 1981 240    76    74   59.7    0.0   59.7   0.00   1.21   65.5   30.6   29.1    1.2   1.21   0.53    0.00    1.16
 1981 241    77    75   60.2    0.0   60.2   0.00   1.21   66.0   30.0   30.2    1.2   1.21   0.53    0.00    1.19
 1981 242    78    76   60.6    0.0   60.6   0.00   1.21   66.5   29.5   31.1    1.2   1.21   0.54    0.00    1.22
 1981 243    79    77   60.9    0.0   60.9   0.00   1.21   66.9   28.9   32.0    1.2   1.21   0.54    0.00    1.25
 1981 244    80    78   61.3    0.0   61.3   0.00   1.21   67.4   28.4   32.9    1.2   1.21   0.55    0.00    1.28
 1981 245    81    79   61.7    0.0   61.7   0.00   1.21   67.9   27.7   34.0    1.2   1.21   0.55    0.00    1.31
 1981 246    82    80   62.1    0.0   62.1   0.00   1.21   68.4   27.2   34.9    1.2   1.21   0.56    0.00    1.34
 1981 247    83    81   62.5    0.0   62.5   0.00   1.21   68.9   26.6   35.9    1.2   1.21   0.56    0.00    1.38
 1981 248    84    82   62.9    0.8   62.0   1.12   1.20   69.4   26.4   35.7    1.2   1.20   0.56    0.00    1.41
 1981 249    85    83   63.2    1.5   61.8   1.12   1.20   69.8   26.3   35.5    1.2   1.20   0.56    0.00    1.44
 1981 250    86    84   63.6    2.1   61.5   1.12   1.19   70.3   26.2   35.4    1.2   1.19   0.56    0.00    1.47
 1981 251    87    85   63.9    2.7   61.2   1.12   1.19   70.7   26.0   35.2    1.2   1.19   0.55    0.00    1.51
 1981 252    88    86   64.3    3.4   61.0   1.12   1.18   71.3   25.9   35.1    1.2   1.18   0.55    0.00    1.54
 1981 253    89    87   64.7    4.0   60.7   1.13   1.18   71.8   25.8   34.9    1.2   1.18   0.55    0.00    1.57
 1981 254    90    88   65.1    4.7   60.5   1.13   1.17   72.3   25.7   34.8    1.2   1.17   0.56    0.00    1.61
 1981 255    91    89   65.5    5.3   60.2   1.13   1.17   72.8   25.6   34.6    1.2   1.17   0.56    0.00    1.64
 1981 256    92    90   65.9    6.0   59.9   1.14   1.16   73.3   25.5   34.5    1.2   1.16   0.56    0.00    1.67
 1981 257    93    91   66.2    6.6   59.6   1.14   1.16   73.8   25.3   34.3    1.2   1.16   0.56    0.00    1.71
 1981 258    94    92   66.6    7.3   59.3   1.15   1.15   74.3   25.2   34.1    1.2   1.15   0.57    0.00    1.75
 1981 259    95    93   66.9    7.9   59.0   1.15   1.15   74.7   25.1   33.9    1.1   1.15   0.57    0.00    1.78
 1981 260    96    94   67.3    8.6   58.7   1.15   1.14   75.2   24.9   33.7    1.1   1.14   0.57    0.00    1.82
 1981 261    97    95   67.7    9.3   58.4   1.16   1.13   75.8   24.8   33.6    1.1   1.13   0.57    0.00    1.86
 1981 262    98    96   68.0   10.0   58.0   1.16   1.13   76.2   24.7   33.4    1.1   1.13   0.58    0.00    1.89
 1981 263    99    97   68.2   10.7   57.5   1.16   1.12   76.5   24.5   33.1    1.1   1.12   0.58    0.00    1.93
 1981 264   100    98   68.6   11.3   57.2   1.17   1.11   77.1   24.3   32.9    1.1   1.11   0.58    0.00    1.97
 1981 265   101    99   68.9   12.0   56.9   1.17   1.10   77.6   24.2   32.7    1.1   1.10   0.59    0.00    2.01
 1981 266   102   100   69.3   12.7   56.5   1.17   1.10   78.0   24.0   32.5    1.1   1.10   0.59    0.00    2.05
 1981 267   103   101   69.6   13.4   56.2   1.18   1.09   78.6   23.9   32.3    1.1   1.09   0.59    0.00    2.09
 1981 268   104   102   70.0   14.1   55.9   1.18   1.08   79.1   23.7   32.1    1.1   1.08   0.60    0.00    2.13
 1981 269   105   103   70.3   14.8   55.5   1.18   1.08   79.6   23.6   31.9    1.1   1.08   0.61    0.00    2.17
 1981 270   106   104   70.7   15.5   55.1   1.19   1.07   80.1   23.4   31.7    1.1   1.07   0.61    0.00    2.21
 1981 271   107   105   71.0   16.2   54.8   1.19   1.06   80.7   23.3   31.5    1.1   1.06   0.62    0.00    2.26
 1981 272   108   106   71.4   17.0   54.4   1.19   1.06   81.2   23.1   31.3    1.1   1.06   0.63    0.00    2.30
 1981 273   109   107   71.7   17.7   54.0   1.20   1.05   81.7   23.0   31.0    1.0   1.05   0.63    0.00    2.35
 1981 274   110   108   72.0   18.4   53.6   1.20   1.04   82.1   22.8   30.8    1.0   1.04   0.63    0.00    2.39
 1981 275   111   109   72.3   19.1   53.2   1.20   1.03   82.6   22.6   30.6    1.0   1.03   0.64    0.00    2.44
 1981 276   112   110   72.6   19.8   52.7   1.21   1.02   83.1   22.4   30.3    1.0   1.02   0.65    0.00    2.48
 1981 277   113   111   72.9   20.6   52.3   1.21   1.02   83.6   22.2   30.1    1.0   1.02   0.65    0.00    2.53
 1981 278   114   112   73.2   21.3   51.9   1.21   1.01   84.1   22.1   29.9    1.0   1.01   0.66    0.00    2.58
 1981 279   115   113   73.6   22.0   51.5   1.21   1.00   84.7   21.9   29.6    1.0   1.00   0.66    0.00    2.62
 1981 280   116   114   73.9   22.8   51.2   1.22   0.99   85.3   21.7   29.4    1.0   0.99   0.67    0.00    2.67
 1981 281   117   115   74.3   23.5   50.7   1.22   0.99   85.8   21.6   29.2    1.0   0.99   0.67    0.00    2.72
 1981 282   118   116   74.6   24.3   50.3   1.22   0.98   86.3   21.4   28.9    1.0   0.98   0.68    0.00    2.77
 1981 283   119   117   74.8   25.0   49.8   1.23   0.97   86.8   21.2   28.7    1.0   0.97   0.69    0.00    2.82
 1981 284   120   118   75.1   25.8   49.3   1.23   0.96   87.2   21.0   28.4    1.0   0.96   0.69    0.00    2.88
 1981 285   121   119   75.3   26.5   48.8   1.23   0.95   87.6   20.8   28.1    0.9   0.95   0.70    0.00    2.93
 1981 286   122   120   75.6   27.3   48.3   1.23   0.94   88.0   20.5   27.8    0.9   0.94   0.70    0.00    2.98
 1981 287   123   121   75.8   28.0   47.8   1.24   0.93   88.4   20.3   27.5    0.9   0.93   0.71    0.00    3.04
 1981 288   124   122   76.0   28.8   47.2   1.24   0.92   88.8   20.1   27.1    0.9   0.92   0.71    0.00    3.09
 1981 289   125   123   76.2   29.5   46.7   1.24   0.91   89.2   19.8   26.8    0.9   0.91   0.72    0.00    3.15
 1981 290   126   124   76.4   30.3   46.1   1.24   0.90   89.5   19.6   26.5    0.9   0.90   0.72    0.00    3.20
 1981 291   127   125   76.5   31.0   45.5   1.25   0.88   89.9   19.4   26.2    0.9   0.88   0.72    0.00    3.26
 1981 292   128   126   76.7   31.7   45.0   1.25   0.87   90.2   19.1   25.9    0.9   0.87   0.73    0.00    3.32
 1981 293   129   127   76.9   32.5   44.4   1.25   0.86   90.5   18.9   25.5    0.9   0.86   0.73    0.00    3.37
 1981 294   130   128   77.0   33.2   43.8   1.25   0.85   90.8   18.6   25.2    0.9   0.85   0.73    0.00    3.43
 1981 295   131   129   77.2   33.9   43.2   1.25   0.84   91.2   18.4   24.9    0.8   0.84   0.74    0.00    3.49
 1981 296   132   130   77.4   34.7   42.7   1.25   0.83   91.5   18.1   24.5    0.8   0.83   0.74    0.00    3.55
 1981 297   133   131   77.5   35.4   42.1   1.25   0.82   91.8   17.9   24.2    0.8   0.82   0.75    0.00    3.61
 1981 298   134   132   77.6   36.1   41.5   1.25   0.81   92.0   17.6   23.9    0.8   0.81   0.75    0.00    3.67
 1981 299   135   133   77.8   36.8   40.9   1.25   0.79   92.3   17.4   23.5    0.8   0.79   0.75    0.00    3.73
 1981 300   136   134   77.9   37.5   40.3   1.25   0.78   92.6   17.1   23.2    0.8   0.78   0.76    0.00    3.79
 1981 301   137   135   77.9   37.5   40.3   1.25   0.78   92.6   17.1   23.2    0.8   0.78   0.76    0.00    3.79
 1981 302   138   136   77.9   37.5   40.3   1.25   0.78   92.6   17.1   23.2    0.8   0.78   0.76    0.00    3.79
 1981 303   139   137   77.9   37.5   40.3   1.25   0.78   92.6   17.1   23.2    0.8   0.78   0.76    0.00    3.79
 1981 304   140   138   77.9   37.5   40.3   1.25   0.78   92.6   17.1   23.2    0.8   0.78   0.76    0.00    3.79
 1981 305   141   139   77.9   37.5   40.3   1.25   0.78   92.6   17.1   23.2    0.8   0.78   0.76    0.00    3.79

*DSSAT Cropping System Model Ver. 4.7.5.008 -release  MAY 04, 2021 17:13:31

*RUN   2        : ET-SIMAGRI                MZCER047 ETMZdddd    1
 MODEL          : MZCER047 - Maize
 EXPERIMENT     : ETMZdddd SN MELKSSAL
 DATA PATH      : C:\IRI\Python_Dash\ET_DSS_hist\TEST\
 TREATMENT  1   : ET-SIMAGRI                MZCER047
  
@YEAR DOY   DAS   DAP   CNAD   GNAD   VNAD   GN%D   VN%D   NUPC   LNAD   SNAD   LN%D   SN%D   RN%D   SNN0C   SNN1C
 1982 166     2     0    0.0    0.0    0.0   0.00   0.00    0.0    0.0    0.0    0.0   0.00   0.00    0.00    0.00
 1982 167     3     1    0.0    0.0    0.0   0.00   0.00    0.0    0.0    0.0    0.0   0.00   0.00    0.00    0.00
 1982 168     4     2    0.0    0.0    0.0   0.00   0.00    0.0    0.0    0.0    0.0   0.00   0.00    0.00    0.00
 1982 169     5     3    0.0    0.0    0.0   0.00   0.00    0.0    0.0    0.0    0.0   0.00   0.00    0.00    0.00
 1982 170     6     4    0.0    0.0    0.0   0.00   0.00    0.0    0.0    0.0    0.0   0.00   0.00    0.00    0.00
 1982 171     7     5    0.0    0.0    0.0   0.00   0.00    0.0    0.0    0.0    0.0   0.00   0.00    0.00    0.00
 1982 172     8     6    1.1    0.0    1.1   0.00   4.40    0.0    0.5    0.5    4.4   4.40   2.20    0.00    0.00
 1982 173     9     7    1.1    0.0    1.1   0.00   4.40    0.0    0.5    0.5    4.4   4.40   2.15    0.00    0.00
 1982 174    10     8    1.1    0.0    1.1   0.00   4.40    0.0    0.5    0.5    4.4   4.40   2.06    0.00    0.00
 1982 175    11     9    1.1    0.0    1.1   0.00   4.40    0.0    0.5    0.5    4.4   4.40   1.93    0.00    0.00
 1982 176    12    10    1.1    0.0    1.1   0.00   4.40    0.0    0.5    0.5    4.4   4.40   1.76    0.00    0.00
 1982 177    13    11    1.1    0.0    1.1   0.00   4.40    0.0    0.5    0.5    4.4   4.40   1.59    0.00    0.00
 1982 178    14    12    1.1    0.0    1.1   0.00   4.09    0.0    0.6    0.5    4.1   4.09   1.42    0.00    0.00
 1982 179    15    13    1.1    0.0    1.1   0.00   3.47    0.0    0.7    0.4    3.5   3.47   1.18    0.00    0.00
 1982 180    16    14    1.3    0.0    1.3   0.00   3.22    0.3    0.9    0.4    3.2   3.22   1.21    0.00    0.00
 1982 181    17    15    1.7    0.0    1.7   0.00   3.27    0.7    1.3    0.4    3.3   3.27   1.27    0.00    0.00
 1982 182    18    16    2.1    0.0    2.1   0.00   3.32    1.1    1.7    0.4    3.3   3.32   1.29    0.00    0.01
 1982 183    19    17    2.6    0.0    2.6   0.00   3.27    1.7    2.2    0.4    3.3   3.27   1.38    0.00    0.01
 1982 184    20    18    3.1    0.0    3.1   0.00   3.29    2.3    2.7    0.4    3.3   3.29   1.37    0.00    0.01
 1982 185    21    19    3.8    0.0    3.8   0.00   3.28    3.1    3.4    0.4    3.3   3.28   1.41    0.00    0.01
 1982 186    22    20    4.5    0.0    4.5   0.00   3.19    4.0    4.1    0.4    3.2   3.19   1.41    0.00    0.01
 1982 187    23    21    5.5    0.0    5.5   0.00   3.40    5.2    5.1    0.4    3.4   3.40   1.49    0.00    0.02
 1982 188    24    22    6.3    0.0    6.3   0.00   3.23    6.0    5.9    0.4    3.2   3.23   1.29    0.00    0.02
 1982 189    25    23    7.5    0.0    7.5   0.00   3.17    7.5    7.1    0.4    3.2   3.17   1.39    0.00    0.03
 1982 190    26    24   11.2    0.0   11.2   0.00   4.05   11.2   10.7    0.5    4.1   4.05   1.28    0.00    0.04
 1982 191    27    25   12.6    0.0   12.6   0.00   3.96   12.8   12.1    0.5    4.0   3.96   1.28    0.00    0.04
 1982 192    28    26   14.6    0.0   14.6   0.00   3.88   15.4   14.2    0.5    3.9   3.88   1.44    0.00    0.05
 1982 193    29    27   16.1    0.0   16.1   0.00   3.74   17.2   15.6    0.5    3.7   3.74   1.39    0.00    0.06
 1982 194    30    28   17.7    0.0   17.7   0.00   3.67   19.1   17.2    0.5    3.7   3.67   1.33    0.00    0.07
 1982 195    31    29   19.8    0.0   19.8   0.00   3.63   21.2   19.2    0.6    3.6   3.63   1.23    0.00    0.08
 1982 196    32    30   21.3    0.0   21.3   0.00   3.56   23.4   20.6    0.7    3.6   3.56   1.35    0.00    0.10
 1982 197    33    31   23.5    0.0   23.5   0.00   3.53   25.9   22.7    0.9    3.5   3.53   1.29    0.00    0.11
 1982 198    34    32   26.0    0.0   26.0   0.00   3.43   28.3   24.8    1.1    3.4   3.43   1.19    0.00    0.13
 1982 199    35    33   27.5    0.0   27.5   0.00   3.30   29.9   26.2    1.4    3.3   3.30   1.14    0.00    0.15
 1982 200    36    34   28.4    0.0   28.4   0.00   3.23   30.9   26.9    1.6    3.2   3.23   1.13    0.00    0.17
 1982 201    37    35   29.0    0.0   29.0   0.00   3.19   31.7   27.3    1.7    3.2   3.19   1.13    0.00    0.19
 1982 202    38    36   32.4    0.0   32.4   0.00   3.47   36.0   30.4    2.0    3.5   3.47   1.33    0.00    0.20
 1982 203    39    37   32.4    0.0   32.4   0.00   3.22   36.0   30.1    2.4    3.2   3.22   1.32    0.00    0.20
 1982 204    40    38   36.8    0.0   36.8   0.00   3.28   40.3   33.5    3.3    3.3   3.28   1.21    0.00    0.23
 1982 205    41    39   40.3    0.0   40.3   0.00   3.24   44.0   36.0    4.3    3.2   3.24   1.18    0.00    0.25
 1982 206    42    40   44.0    0.0   44.0   0.00   3.20   47.5   38.5    5.5    3.2   3.20   1.11    0.00    0.27
 1982 207    43    41   46.2    0.0   46.2   0.00   3.05   50.0   39.6    6.6    3.0   3.05   1.12    0.00    0.30
 1982 208    44    42   47.3    0.0   47.3   0.00   2.83   51.1   39.6    7.6    2.8   2.83   1.08    0.00    0.32
 1982 209    45    43   47.8    0.0   47.8   0.00   2.61   51.8   39.2    8.6    2.6   2.61   1.04    0.00    0.35
 1982 210    46    44   48.4    0.0   48.4   0.00   2.43   52.4   38.8    9.6    2.4   2.43   0.99    0.00    0.37
 1982 211    47    45   48.9    0.0   48.9   0.00   2.28   53.0   38.5   10.4    2.3   2.28   0.98    0.00    0.40
 1982 212    48    46   49.5    0.0   49.5   0.00   2.16   53.6   38.2   11.3    2.2   2.16   0.96    0.00    0.42
 1982 213    49    47   50.0    0.0   50.0   0.00   2.06   54.1   37.9   12.1    2.1   2.06   0.95    0.00    0.45
 1982 214    50    48   50.5    0.0   50.5   0.00   1.99   54.7   37.7   12.8    2.0   1.99   0.94    0.00    0.47
 1982 215    51    49   51.0    0.0   51.0   0.00   1.90   55.3   37.5   13.6    1.9   1.90   0.90    0.00    0.50
 1982 216    52    50   51.6    0.0   51.6   0.00   1.79   55.9   38.1   13.5    1.8   1.79   0.89    0.00    0.52
 1982 217    53    51   52.1    0.0   52.1   0.00   1.70   56.5   37.8   14.3    1.7   1.70   0.88    0.00    0.55
 1982 218    54    52   52.7    0.0   52.7   0.00   1.63   57.1   37.5   15.2    1.6   1.63   0.87    0.00    0.57
 1982 219    55    53   53.3    0.0   53.3   0.00   1.58   57.7   37.2   16.1    1.6   1.58   0.86    0.00    0.60
 1982 220    56    54   53.8    0.0   53.8   0.00   1.54   58.3   37.0   16.9    1.5   1.54   0.85    0.00    0.62
 1982 221    57    55   54.3    0.0   54.3   0.00   1.50   58.8   36.7   17.6    1.5   1.50   0.84    0.00    0.65
 1982 222    58    56   54.7    0.0   54.7   0.00   1.47   59.3   36.5   18.3    1.5   1.47   0.81    0.00    0.68
 1982 223    59    57   55.1    0.0   55.1   0.00   1.44   59.7   36.2   18.9    1.4   1.44   0.78    0.00    0.70
 1982 224    60    58   55.6    0.0   55.6   0.00   1.41   60.2   36.1   19.5    1.4   1.41   0.76    0.00    0.73
 1982 225    61    59   56.0    0.0   56.0   0.00   1.39   60.7   35.9   20.0    1.4   1.39   0.74    0.00    0.75
 1982 226    62    60   56.2    0.0   56.2   0.00   1.37   61.0   35.8   20.4    1.4   1.37   0.74    0.00    0.78
 1982 227    63    61   56.6    0.0   56.6   0.00   1.36   61.4   35.8   20.9    1.4   1.36   0.72    0.00    0.81
 1982 228    64    62   57.1    0.0   57.1   0.00   1.35   61.9   35.8   21.3    1.3   1.35   0.70    0.00    0.83
 1982 229    65    63   57.3    0.0   57.3   0.00   1.33   62.2   35.8   21.6    1.3   1.33   0.69    0.00    0.86
 1982 230    66    64   57.7    0.0   57.7   0.00   1.33   62.7   36.0   21.8    1.3   1.33   0.66    0.00    0.89
 1982 231    67    65   58.0    0.0   58.0   0.00   1.32   63.0   36.0   22.0    1.3   1.32   0.66    0.00    0.91
 1982 232    68    66   58.4    0.0   58.4   0.00   1.31   63.5   36.2   22.1    1.3   1.31   0.65    0.00    0.94
 1982 233    69    67   58.8    0.0   58.8   0.00   1.30   63.9   36.3   22.5    1.3   1.30   0.63    0.00    0.97
 1982 234    70    68   59.2    0.0   59.2   0.00   1.29   64.4   36.3   22.8    1.3   1.29   0.61    0.00    1.00
 1982 235    71    69   59.6    0.0   59.6   0.00   1.28   64.8   36.4   23.2    1.3   1.28   0.59    0.00    1.02
 1982 236    72    70   60.0    0.0   60.0   0.00   1.27   65.3   35.7   24.2    1.3   1.27   0.60    0.00    1.05
 1982 237    73    71   60.4    0.0   60.4   0.00   1.26   65.8   35.0   25.3    1.3   1.26   0.60    0.00    1.08
 1982 238    74    72   60.6    0.0   60.6   0.00   1.25   66.0   34.3   26.3    1.2   1.25   0.60    0.00    1.11
 1982 239    75    73   61.0    0.0   61.0   0.00   1.24   66.5   33.6   27.3    1.2   1.24   0.60    0.00    1.14
 1982 240    76    74   61.4    0.0   61.4   0.00   1.23   66.9   33.0   28.4    1.2   1.23   0.61    0.00    1.16
 1982 241    77    75   61.7    0.0   61.7   0.00   1.23   67.4   32.3   29.5    1.2   1.23   0.61    0.00    1.19
 1982 242    78    76   62.1    0.0   62.1   0.00   1.22   67.8   31.5   30.6    1.2   1.22   0.61    0.00    1.22
 1982 243    79    77   62.6    0.0   62.6   0.00   1.21   68.4   30.8   31.8    1.2   1.21   0.61    0.00    1.25
 1982 244    80    78   62.9    0.0   62.9   0.00   1.21   68.7   30.2   32.7    1.2   1.21   0.61    0.00    1.28
 1982 245    81    79   63.3    0.0   63.3   0.00   1.20   69.2   29.6   33.7    1.2   1.20   0.62    0.00    1.31
 1982 246    82    80   63.7    0.0   63.7   0.00   1.21   69.7   29.0   34.7    1.2   1.21   0.62    0.00    1.34
 1982 247    83    81   64.1    0.0   64.1   0.00   1.21   70.2   28.4   35.7    1.2   1.21   0.62    0.00    1.37
 1982 248    84    82   64.5    0.0   64.5   0.00   1.21   70.7   27.8   36.8    1.2   1.21   0.63    0.00    1.40
 1982 249    85    83   64.9    0.9   64.1   1.11   1.20   71.1   27.6   36.5    1.2   1.20   0.62    0.00    1.43
 1982 250    86    84   65.3    1.5   63.8   1.10   1.19   71.6   27.5   36.3    1.2   1.19   0.61    0.00    1.46
 1982 251    87    85   65.7    2.1   63.6   1.10   1.19   72.1   27.4   36.2    1.2   1.19   0.60    0.00    1.49
 1982 252    88    86   66.1    2.8   63.3   1.11   1.18   72.6   27.3   36.1    1.2   1.18   0.59    0.00    1.52
 1982 253    89    87   66.5    3.4   63.1   1.11   1.18   73.1   27.2   35.9    1.2   1.18   0.58    0.00    1.55
 1982 254    90    88   66.8    4.1   62.7   1.11   1.17   73.5   27.0   35.7    1.2   1.17   0.58    0.00    1.58
 1982 255    91    89   67.2    4.8   62.4   1.12   1.17   73.9   26.9   35.5    1.2   1.17   0.58    0.00    1.62
 1982 256    92    90   67.5    5.4   62.1   1.12   1.16   74.4   26.7   35.4    1.2   1.16   0.58    0.00    1.65
 1982 257    93    91   67.9    6.1   61.8   1.12   1.16   74.8   26.6   35.2    1.2   1.16   0.58    0.00    1.68
 1982 258    94    92   68.2    6.8   61.4   1.13   1.15   75.2   26.4   35.0    1.1   1.15   0.58    0.00    1.71
 1982 259    95    93   68.5    7.4   61.1   1.13   1.14   75.7   26.3   34.8    1.1   1.14   0.58    0.00    1.75
 1982 260    96    94   68.8    8.1   60.7   1.13   1.14   76.1   26.1   34.6    1.1   1.14   0.58    0.00    1.78
 1982 261    97    95   69.2    8.8   60.4   1.13   1.13   76.6   26.0   34.4    1.1   1.13   0.57    0.00    1.82
 1982 262    98    96   69.6    9.5   60.1   1.14   1.12   77.1   25.9   34.2    1.1   1.12   0.57    0.00    1.85
 1982 263    99    97   69.9   10.2   59.8   1.14   1.12   77.6   25.7   34.0    1.1   1.12   0.58    0.00    1.88
 1982 264   100    98   70.3   10.8   59.4   1.14   1.11   78.1   25.6   33.8    1.1   1.11   0.58    0.00    1.92
 1982 265   101    99   70.6   11.5   59.1   1.15   1.11   78.5   25.4   33.6    1.1   1.11   0.58    0.00    1.96
 1982 266   102   100   70.9   12.2   58.7   1.15   1.10   79.0   25.3   33.4    1.1   1.10   0.58    0.00    1.99
 1982 267   103   101   71.2   13.0   58.2   1.15   1.09   79.4   25.1   33.2    1.1   1.09   0.58    0.00    2.03
 1982 268   104   102   71.5   13.7   57.8   1.16   1.08   79.7   24.9   32.9    1.1   1.08   0.57    0.00    2.07
 1982 269   105   103   71.7   14.4   57.3   1.16   1.07   80.1   24.7   32.6    1.1   1.07   0.58    0.00    2.10
 1982 270   106   104   71.9   15.1   56.9   1.16   1.06   80.5   24.5   32.4    1.1   1.06   0.58    0.00    2.14
 1982 271   107   105   72.2   15.8   56.4   1.17   1.05   80.8   24.3   32.1    1.1   1.05   0.58    0.00    2.18
 1982 272   108   106   72.4   16.5   55.8   1.17   1.04   81.1   24.0   31.8    1.0   1.04   0.58    0.00    2.22
 1982 273   109   107   72.6   17.3   55.3   1.17   1.03   81.5   23.8   31.5    1.0   1.03   0.58    0.00    2.26
 1982 274   110   108   72.8   18.0   54.8   1.18   1.02   81.8   23.6   31.2    1.0   1.02   0.58    0.00    2.30
 1982 275   111   109   72.9   18.7   54.2   1.18   1.01   82.1   23.4   30.9    1.0   1.01   0.58    0.00    2.34
 1982 276   112   110   73.1   19.4   53.7   1.18   1.00   82.4   23.1   30.6    1.0   1.00   0.58    0.00    2.38
 1982 277   113   111   73.3   20.1   53.1   1.18   0.99   82.6   22.9   30.2    1.0   0.99   0.58    0.00    2.42