*SOILS: General DSSAT Soil Input File


*ETET000010  Awassa      L         90  ET000010
@SITE        COUNTRY          LAT     LONG SCS FAMILY
 ET          Ethiopia         7.05   38.29 Vitric Andosols
@ SCOM  SALB  SLU1  SLDR  SLRO  SLNF  SLPF  SMHB  SMPX  SMKE
    BN   .13     6    .6    84     1     1 IB001 IB001 IB001
@  SLB  SLMH  SLLL  SDUL  SSAT  SRGF  SSKS  SBDM  SLOC  SLCL  SLSI  SLCF  SLNI  SLHW  SLHB  SCEC  SADC
    27   -99  .198  .351  .602     1  1.32   .94   2.1    23    28   -99   .19   6.5   -99  16.8   -99
    40   -99  .196  .341  .622  .512   .43   .89 1.835    24    27   -99   .19   6.8   -99    22   -99
    80   -99  .225  .379  .588  .301   .23   .98 1.995    29    28   -99   .19   6.9   -99  18.6   -99
    90   -99  .217  .363   .46  .183   .23  1.34 1.317    31    32   -99   .12     7   -99    21   -99

*ETET000_10  Awassa      L         90  ET000_10
@SITE        COUNTRY          LAT     LONG SCS FAMILY
 ET          Ethiopia         7.05   38.29 Vitric Andosols
@ SCOM  SALB  SLU1  SLDR  SLRO  SLNF  SLPF  SMHB  SMPX  SMKE
    BN   .13     6    .6    84     1     1 IB001 IB001 IB001
@  SLB  SLMH  SLLL  SDUL  SSAT  SRGF  SSKS  SBDM  SLOC  SLCL  SLSI  SLCF  SLNI  SLHW  SLHB  SCEC  SADC
    27   -99  .198  .351  .602     1  1.32   .94   2.1    23    28   -99   .19   6.5   -99  16.8   -99
    40   -99  .196  .341  .622  .512   .43   .89 1.835    24    27   -99   .19   6.8   -99    22   -99
    70   -99  .196  .341  .622  .512   .43   .89 1.835    24    27   -99   .19   6.8   -99    22   -99
    80   -99  .225  .379  .588   .00   .23   .98 1.995    29    28   -99   .19   6.9   -99  18.6   -99
    90   -99  .217  .363   .46   .00   .23  1.34 1.317    31    32   -99   .12     7   -99    21   -99
    
*ETET000011  Bako2           C     163  ET000011
@SITE        COUNTRY          LAT     LONG SCS FAMILY
 ET          Ethiopia         9.12   37.04 Nitosols
@ SCOM  SALB  SLU1  SLDR  SLRO  SLNF  SLPF  SMHB  SMPX  SMKE
     R   .14     6    .6    84     1     1 IB001 IB001 IB001
@  SLB  SLMH  SLLL  SDUL  SSAT  SRGF  SSKS  SBDM  SLOC  SLCL  SLSI  SLCF  SLNI  SLHW  SLHB  SCEC  SADC
    25   -99  .274  .393  .519     1   .06  1.13  4.22  58.4    24   -99   .39   5.8   -99    35   -99
    50   -99  .298  .367  .521  .472   .06  1.17  1.41  74.4    20   -99   .13   5.9   -99  22.8   -99
    80   -99  .313  .414  .573  .273   .06  1.03  1.34  78.4    18   -99    .1   6.2   -99    18   -99
   120   -99  .338  .445  .539  .135   .06  1.13   .91    50    20   -99   .08   6.4   -99  17.6   -99
   158   -99   .33  .417  .522  .062   .06  1.18    .8    82    14   -99   .06   6.4   -99    19   -99
   163   -99  .327  .413  .511   .04   .06  1.21   .71    84    14   -99   .07   6.7   -99    20   -99

*ETET000_11  Bako2           C     163  ET000_11
@SITE        COUNTRY          LAT     LONG SCS FAMILY
 ET          Ethiopia         9.12   37.04 Nitosols
@ SCOM  SALB  SLU1  SLDR  SLRO  SLNF  SLPF  SMHB  SMPX  SMKE
     R   .14     6    .6    84     1     1 IB001 IB001 IB001
@  SLB  SLMH  SLLL  SDUL  SSAT  SRGF  SSKS  SBDM  SLOC  SLCL  SLSI  SLCF  SLNI  SLHW  SLHB  SCEC  SADC
    25   -99  .274  .393  .519     1   .06  1.13  4.22  58.4    24   -99   .18   5.8   -99    35   -99
    50   -99  .298  .367  .521  .472   .06  1.17  1.41  74.4    20   -99   .13   5.9   -99  22.8   -99
    70   -99  .313  .414  .573  .273   .06  1.03  1.34  78.4    18   -99    .1   6.2   -99    18   -99
    80   -99  .313  .414  .573   .00   .06  1.03  1.34  78.4    18   -99    .1   6.2   -99    18   -99
   120   -99  .338  .445  .539   .00   .06  1.13   .91    50    20   -99   .08   6.4   -99  17.6   -99
   158   -99   .33  .417  .522   .00   .06  1.18    .8    82    14   -99   .06   6.4   -99    19   -99
   163   -99  .327  .413  .511   .00   .06  1.21   .71    84    14   -99   .07   6.7   -99    20   -99

*ETET001_11  Bako2           C     163  ET000_11
@SITE        COUNTRY          LAT     LONG SCS FAMILY
 ET          Ethiopia         9.12   37.04 Nitosols
@ SCOM  SALB  SLU1  SLDR  SLRO  SLNF  SLPF  SMHB  SMPX  SMKE
     R   .14     6    .6    84     1     1 IB001 IB001 IB001
@  SLB  SLMH  SLLL  SDUL  SSAT  SRGF  SSKS  SBDM  SLOC  SLCL  SLSI  SLCF  SLNI  SLHW  SLHB  SCEC  SADC
    25   -99  .274  .393  .519     1   .06  1.13  4.22  58.4    24   -99   .18   5.8   -99    35   -99
    50   -99  .298  .367  .521  .472   .06  1.17  1.41  74.4    20   -99   .13   5.9   -99  22.8   -99
    70   -99  .313  .414  .573   .00   .06  1.03  1.34  78.4    18   -99    .1   6.2   -99    18   -99
    80   -99  .313  .414  .573   .00   .06  1.03  1.34  78.4    18   -99    .1   6.2   -99    18   -99
   120   -99  .338  .445  .539   .00   .06  1.13   .91    50    20   -99   .08   6.4   -99  17.6   -99
   158   -99   .33  .417  .522   .00   .06  1.18    .8    82    14   -99   .06   6.4   -99    19   -99
   163   -99  .327  .413  .511   .00   .06  1.21   .71    84    14   -99   .07   6.7   -99    20   -99
   
*ETET002_11  Bako2           C     163  ET000_11
@SITE        COUNTRY          LAT     LONG SCS FAMILY
 ET          Ethiopia         9.12   37.04 Nitosols
@ SCOM  SALB  SLU1  SLDR  SLRO  SLNF  SLPF  SMHB  SMPX  SMKE
     R   .14     6    .6    84     1     1 IB001 IB001 IB001
@  SLB  SLMH  SLLL  SDUL  SSAT  SRGF  SSKS  SBDM  SLOC  SLCL  SLSI  SLCF  SLNI  SLHW  SLHB  SCEC  SADC
    25   -99  .274  .393  .519     1   .06  1.13  4.22  58.4    24   -99   .18   5.8   -99    35   -99
    50   -99  .298  .367  .521   .10   .06  1.17  1.41  74.4    20   -99   .13   5.9   -99  22.8   -99
    70   -99  .313  .414  .573   .00   .06  1.03  1.34  78.4    18   -99    .1   6.2   -99    18   -99
    80   -99  .313  .414  .573   .00   .06  1.03  1.34  78.4    18   -99    .1   6.2   -99    18   -99
   120   -99  .338  .445  .539   .00   .06  1.13   .91    50    20   -99   .08   6.4   -99  17.6   -99
   158   -99   .33  .417  .522   .00   .06  1.18    .8    82    14   -99   .06   6.4   -99    19   -99
   163   -99  .327  .413  .511   .00   .06  1.21   .71    84    14   -99   .07   6.7   -99    20   -99   
   
*ETET003_11  Bako2           C     163  ET000_11
@SITE        COUNTRY          LAT     LONG SCS FAMILY
 ET          Ethiopia         9.12   37.04 Nitosols
@ SCOM  SALB  SLU1  SLDR  SLRO  SLNF  SLPF  SMHB  SMPX  SMKE
     R   .14     6    .6    84     1     1 IB001 IB001 IB001
@  SLB  SLMH  SLLL  SDUL  SSAT  SRGF  SSKS  SBDM  SLOC  SLCL  SLSI  SLCF  SLNI  SLHW  SLHB  SCEC  SADC
    25   -99  .274  .393  .519     1   .06  1.13  4.22  58.4    24   -99   .18   5.8   -99    35   -99
    40   -99  .298  .367  .521  .472   .06  1.17  1.41  74.4    20   -99   .13   5.9   -99  22.8   -99
    70   -99  .313  .414  .573   .00   .06  1.03  1.34  78.4    18   -99    .1   6.2   -99    18   -99
    80   -99  .313  .414  .573   .00   .06  1.03  1.34  78.4    18   -99    .1   6.2   -99    18   -99
   120   -99  .338  .445  .539   .00   .06  1.13   .91    50    20   -99   .08   6.4   -99  17.6   -99
   158   -99   .33  .417  .522   .00   .06  1.18    .8    82    14   -99   .06   6.4   -99    19   -99
   163   -99  .327  .413  .511   .00   .06  1.21   .71    84    14   -99   .07   6.7   -99    20   -99   
   
*ETET000012  Bako        C        163  ET000012
@SITE        COUNTRY          LAT     LONG SCS FAMILY
 ET          Ethiopia         9.12   37.04 Nitosols
@ SCOM  SALB  SLU1  SLDR  SLRO  SLNF  SLPF  SMHB  SMPX  SMKE
     R   .14     6    .6    84     1     1 IB001 IB001 IB001
@  SLB  SLMH  SLLL  SDUL  SSAT  SRGF  SSKS  SBDM  SLOC  SLCL  SLSI  SLCF  SLNI  SLHW  SLHB  SCEC  SADC
    25   -99  .274  .393   -99   -99   -99  1.13  4.22  58.4    24   -99   .39   5.8   -99    35   -99
    50   -99  .298  .367   -99   -99   -99  1.17  1.41  74.4    20   -99   .13   5.9   -99  22.8   -99
    80   -99  .313  .414   -99   -99   -99  1.03  1.34  78.4    18   -99    .1   6.2   -99    18   -99
   120   -99  .338  .445   -99   -99   -99  1.13   .91    50    20   -99   .08   6.4   -99  17.6   -99
   158   -99   .33  .417   -99   -99   -99  1.18    .8    82    14   -99   .06   6.4   -99    19   -99
   163   -99  .327  .413   -99   -99   -99  1.21   .71    84    14   -99   .07   6.7   -99    20   -99
   
*ETET000013  Bako3       C        209  ET000013
@SITE        COUNTRY          LAT     LONG SCS FAMILY
 ET          Ethiopia          9.6    37.9 Nitosols- from Araya et al. (2015)
@ SCOM  SALB  SLU1  SLDR  SLRO  SLNF  SLPF  SMHB  SMPX  SMKE
     R   .14     6    .6    84     1     1 IB001 IB001 IB001
@  SLB  SLMH  SLLL  SDUL  SSAT  SRGF  SSKS  SBDM  SLOC  SLCL  SLSI  SLCF  SLNI  SLHW  SLHB  SCEC  SADC
    25   -99  .245  .344  .392   -99   -99  1.13   1.6    54    18   -99   .39   5.8   -99    35   -99
    50   -99   .26  .321   .39   -99   -99  1.17   .53    63    12   -99   .13   5.9   -99  22.8   -99
    80   -99   .26  .321  .395   -99   -99  1.03    .2    63    12   -99    .1   6.2   -99    18   -99
   122   -99   .26  .321   .41   -99   -99  1.13    .1    63    12   -99   .08   6.4   -99  17.6   -99
   137   -99   .16  .288  .399   -99   -99  1.18    .1   -99   -99   -99   .06   6.4   -99    19   -99
   159   -99   .11  .242  .402   -99   -99  1.21    .1   -99   -99   -99   .07   6.7   -99    20   -99
   184   -99  .047  .177  .351   -99   -99   -99     8   -99   -99   -99   -99   -99   -99   -99   -99
   209   -99   .05  .193   .41   -99   -99   -99   8.5   -99   -99   -99   -99   -99   -99   -99   -99
   
*ETET000018  Melkassa    L        200  ET000018
@SITE        COUNTRY          LAT     LONG SCS FAMILY
 ET          Ethiopia         8.42   39.32 Vitric Andosols
@ SCOM  SALB  SLU1  SLDR  SLRO  SLNF  SLPF  SMHB  SMPX  SMKE
    BN   .13     6    .6    81     1    .7  IB00  IB00  IB00
@  SLB  SLMH  SLLL  SDUL  SSAT  SRGF  SSKS  SBDM  SLOC  SLCL  SLSI  SLCF  SLNI  SLHW  SLHB  SCEC  SADC
    20   -99  .166   .26  .433     1  1.32   1.2   1.5    22    36   -99   .14   7.9   -99  25.4   -99
    35   -99  .121  .264  .434  .577  1.32   1.2  1.48    24    36   -99   .11     8   -99  27.4   -99
    65   -99  .121  .316  .466  .368   .23   1.1  1.46    36    38   -99    .1   8.3   -99    36   -99
    97   -99  .134  .304  .477  .198   .23     1   1.4    28    44   -99   .08   8.5   -99  30.2   -99
   140   -99  .156  .305  .433  .093  1.32  1.28   .98    25    45   -99   .06   8.6   -99  33.2   -99
   170   -99  .162  .298  .428  .045  1.32  1.36   .78    26    38   -99   .06   8.5   -99  28.2   -99
   200   -99  .173  .314  .433  .025   .23  1.33   .78    28    40   -99   .05   8.3   -99  39.2   -99
   
*ETET000_18  Melkassa    L        200  ET000_18
@SITE        COUNTRY          LAT     LONG SCS FAMILY
 ET          Ethiopia         8.42   39.32 Vitric Andosols
@ SCOM  SALB  SLU1  SLDR  SLRO  SLNF  SLPF  SMHB  SMPX  SMKE
    BN   .13     6    .6    81     1    .7  IB00  IB00  IB00
@  SLB  SLMH  SLLL  SDUL  SSAT  SRGF  SSKS  SBDM  SLOC  SLCL  SLSI  SLCF  SLNI  SLHW  SLHB  SCEC  SADC
    20   -99  .166   .26  .433     1  1.32   1.2   1.5    22    36   -99   .14   7.9   -99  25.4   -99
    35   -99  .121  .264  .434  .577  1.32   1.2  1.48    24    36   -99   .11     8   -99  27.4   -99
    65   -99  .121  .316  .466  .368   .23   1.1  1.46    36    38   -99    .1   8.3   -99    36   -99
    97   -99  .134  .304  .477  .000   .23     1   1.4    28    44   -99   .08   8.5   -99  30.2   -99
   140   -99  .156  .305  .433  .000  1.32  1.28   .98    25    45   -99   .06   8.6   -99  33.2   -99
   170   -99  .162  .298  .428  .000  1.32  1.36   .78    26    38   -99   .06   8.5   -99  28.2   -99
   200   -99  .173  .314  .433  .000   .23  1.33   .78    28    40   -99   .05   8.3   -99  39.2   -99

*ETET001_18  Melkassa    L        200  ET000_18
@SITE        COUNTRY          LAT     LONG SCS FAMILY
 ET          Ethiopia         8.42   39.32 Vitric Andosols
@ SCOM  SALB  SLU1  SLDR  SLRO  SLNF  SLPF  SMHB  SMPX  SMKE
    BN   .13     6    .6    81     1    .7  IB00  IB00  IB00
@  SLB  SLMH  SLLL  SDUL  SSAT  SRGF  SSKS  SBDM  SLOC  SLCL  SLSI  SLCF  SLNI  SLHW  SLHB  SCEC  SADC
    20   -99  .166   .26  .433     1  1.32   1.2   1.5    22    36   -99   .14   7.9   -99  25.4   -99
    35   -99  .121  .264  .434  .577  1.32   1.2  1.48    24    36   -99   .11     8   -99  27.4   -99
    65   -99  .121  .316  .466  .100   .23   1.1  1.46    36    38   -99    .1   8.3   -99    36   -99
    97   -99  .134  .304  .477  .000   .23     1   1.4    28    44   -99   .08   8.5   -99  30.2   -99
   140   -99  .156  .305  .433  .000  1.32  1.28   .98    25    45   -99   .06   8.6   -99  33.2   -99
   170   -99  .162  .298  .428  .000  1.32  1.36   .78    26    38   -99   .06   8.5   -99  28.2   -99
   200   -99  .173  .314  .433  .000   .23  1.33   .78    28    40   -99   .05   8.3   -99  39.2   -99

*ETET002_18  Melkassa    L        200  ET000_18
@SITE        COUNTRY          LAT     LONG SCS FAMILY
 ET          Ethiopia         8.42   39.32 Vitric Andosols
@ SCOM  SALB  SLU1  SLDR  SLRO  SLNF  SLPF  SMHB  SMPX  SMKE
    BN   .13     6    .6    81     1    .7  IB00  IB00  IB00
@  SLB  SLMH  SLLL  SDUL  SSAT  SRGF  SSKS  SBDM  SLOC  SLCL  SLSI  SLCF  SLNI  SLHW  SLHB  SCEC  SADC
    20   -99  .166   .26  .433     1  1.32   1.2   1.5    22    36   -99   .14   7.9   -99  25.4   -99
    35   -99  .121  .264  .434  .577  1.32   1.2  1.48    24    36   -99   .11     8   -99  27.4   -99
    65   -99  .121  .316  .466  .000   .23   1.1  1.46    36    38   -99    .1   8.3   -99    36   -99
    97   -99  .134  .304  .477  .000   .23     1   1.4    28    44   -99   .08   8.5   -99  30.2   -99
   140   -99  .156  .305  .433  .000  1.32  1.28   .98    25    45   -99   .06   8.6   -99  33.2   -99
   170   -99  .162  .298  .428  .000  1.32  1.36   .78    26    38   -99   .06   8.5   -99  28.2   -99
   200   -99  .173  .314  .433  .000   .23  1.33   .78    28    40   -99   .05   8.3   -99  39.2   -99
   
*ETET003_18  Melkassa    L         65  ET000_18
@SITE        COUNTRY          LAT     LONG SCS FAMILY
 ET          Ethiopia         8.42   39.32 Vitric Andosols
@ SCOM  SALB  SLU1  SLDR  SLRO  SLNF  SLPF  SMHB  SMPX  SMKE
    BN   .13     6    .6    81     1    .7  IB00  IB00  IB00
@  SLB  SLMH  SLLL  SDUL  SSAT  SRGF  SSKS  SBDM  SLOC  SLCL  SLSI  SLCF  SLNI  SLHW  SLHB  SCEC  SADC
    20   -99  .166   .26  .433     1  1.32   1.2   1.5    22    36   -99   .14   7.9   -99  25.4   -99
    35   -99  .121  .264  .434  .577  1.32   1.2  1.48    24    36   -99   .11     8   -99  27.4   -99
    65   -99  .121  .316  .466  .000   .23   1.1  1.46    36    38   -99    .1   8.3   -99    36   -99

      
*ETET000015  Kulumssa    C        185  ET000015
@SITE        COUNTRY          LAT     LONG SCS FAMILY
 ET          Ethiopia         8.02   39.13 Vertic Luvisols
@ SCOM  SALB  SLU1  SLDR  SLRO  SLNF  SLPF  SMHB  SMPX  SMKE
    BN   .13     6    .6    84     1     1 IB001 IB001 IB001
@  SLB  SLMH  SLLL  SDUL  SSAT  SRGF  SSKS  SBDM  SLOC  SLCL  SLSI  SLCF  SLNI  SLHW  SLHB  SCEC  SADC
    25   -99  .236  .372  .468     1   .06  1.34   .18    41    38   -99  2.49   5.9   -99  31.4   -99
    45   -99  .254  .379  .458  .497   .06  1.37   .11    45    32   -99  1.98   6.4   -99  32.6   -99
    70   -99  .294  .408  .455  .317   .06  1.38    .1    53    24   -99   1.3   6.4   -99  37.4   -99
   115   -99  .333   .45  .462  .157   .06  1.36   .06    61    24   -99   .94     7   -99    39   -99
   145   -99  .333   .45  .462  .074   .06  1.36   .06    61    24   -99   .56   7.4   -99  39.2   -99
   185   -99  .201  .334  .459  .037   .23  1.37   .01    35    40   -99   .14   7.8   -99  46.6   -99

*ETET000_15  Kulumssa    C        185  ET000_15
@SITE        COUNTRY          LAT     LONG SCS FAMILY
 ET          Ethiopia         8.02   39.13 Vertic Luvisols
@ SCOM  SALB  SLU1  SLDR  SLRO  SLNF  SLPF  SMHB  SMPX  SMKE
    BN   .13     6    .6    84     1     1 IB001 IB001 IB001
@  SLB  SLMH  SLLL  SDUL  SSAT  SRGF  SSKS  SBDM  SLOC  SLCL  SLSI  SLCF  SLNI  SLHW  SLHB  SCEC  SADC
    25   -99  .236  .372  .468     1   .06  1.34   .18    41    38   -99  2.49   5.9   -99  31.4   -99
    45   -99  .254  .379  .458  .497   .06  1.37   .11    45    32   -99  1.98   6.4   -99  32.6   -99
    70   -99  .294  .408  .455  .317   .06  1.38    .1    53    24   -99   1.3   6.4   -99  37.4   -99
   115   -99  .333   .45  .462   .00   .06  1.36   .06    61    24   -99   .94     7   -99    39   -99
   145   -99  .333   .45  .462   .00   .06  1.36   .06    61    24   -99   .56   7.4   -99  39.2   -99
   185   -99  .201  .334  .459   .00   .23  1.37   .01    35    40   -99   .14   7.8   -99  46.6   -99

*ETET001_15  Kulumssa    C        185  ET000_15   
@SITE        COUNTRY          LAT     LONG SCS FAMILY*ETET000022  Miesso      C        132  ET000022
 ET          Ethiopia         8.02   39.13 Vertic Luvisols@SITE        COUNTRY          LAT     LONG SCS FAMILY
@ SCOM  SALB  SLU1  SLDR  SLRO  SLNF  SLPF  SMHB  SMPX  SMKE ET          Ethiopia         9.22   40.76 Eutric Vertisols
    BN   .13     6    .6    84     1     1 IB001 IB001 IB001@ SCOM  SALB  SLU1  SLDR  SLRO  SLNF  SLPF  SMHB  SMPX  SMKE
@  SLB  SLMH  SLLL  SDUL  SSAT  SRGF  SSKS  SBDM  SLOC  SLCL  SLSI  SLCF  SLNI  SLHW  SLHB  SCEC  SADC    BL   .09     6    .4    81     1     1 IB001 IB001 IB001
    25   -99  .236  .372  .468     1   .06  1.34   .18    41    38   -99  2.49   5.9   -99  31.4   -99@  SLB  SLMH  SLLL  SDUL  SSAT  SRGF  SSKS  SBDM  SLOC  SLCL  SLSI  SLCF  SLNI  SLHW  SLHB  SCEC  SADC
    45   -99  .254  .379  .458  .497   .06  1.37   .11    45    32   -99  1.98   6.4   -99  32.6   -99    25   -99  .318   .44  .517     1   .06  1.25  1.06    54    28   -99   .08   7.9   -99  48.4   -99
    70   -99  .294  .408  .455   .00   .06  1.38    .1    53    24   -99   1.3   6.4   -99  37.4   -99    50   -99   .34  .459  .524  .472   .06  1.28   .78    58    24   -99    .1   7.8   -99  52.2   -99
   115   -99  .333   .45  .462   .00   .06  1.36   .06    61    24   -99   .94     7   -99    39   -99    90   -99   .34  .462  .552  .247   .06  1.22  1.38    58    24   -99   .08   7.6   -99    46   -99
   145   -99  .333   .45  .462   .00   .06  1.36   .06    61    24   -99   .56   7.4   -99  39.2   -99   132   -99   .24  .381  .508  .109   .06  1.38   .58    40    28   -99   .04   7.7   -99    41   -99
   185   -99  .201  .334  .459   .00   .23  1.37   .01    35    40   -99   .14   7.8   -99  46.6   -99

*ETET000_22  Miesso      C        132  ET000_22
@SITE        COUNTRY          LAT     LONG SCS FAMILY
 ET          Ethiopia         9.22   40.76 Eutric Vertisols
@ SCOM  SALB  SLU1  SLDR  SLRO  SLNF  SLPF  SMHB  SMPX  SMKE
    BL   .09     6    .4    81     1     1 IB001 IB001 IB001
@  SLB  SLMH  SLLL  SDUL  SSAT  SRGF  SSKS  SBDM  SLOC  SLCL  SLSI  SLCF  SLNI  SLHW  SLHB  SCEC  SADC
    25   -99  .318   .44  .517     1   .06  1.25  1.06    54    28   -99   .08   7.9   -99  48.4   -99
    50   -99   .34  .459  .524  .472   .06  1.28   .78    58    24   -99    .1   7.8   -99  52.2   -99
    70   -99   .34  .459  .524  .472   .06  1.28   .78    58    24   -99    .1   7.8   -99  52.2   -99
    90   -99   .34  .462  .552   .00   .06  1.22  1.38    58    24   -99   .08   7.6   -99    46   -99
   132   -99   .24  .381  .508   .00   .06  1.38   .58    40    28   -99   .04   7.7   -99    41   -99

*ET00510062  Assela_1    CL       144    Jemal DSSAT-spatial simulation
@SITE        COUNTRY         LAT     LONG     SCS Family
 00510062    Ethiopia        8.00    39.10 Haplic Vertisols
@ SCOM  SALB  SLU1  SLDR  SLRO  SLNF  SLPF  SMHB  SMPX  SMKE
   -99  0.13   6.0  0.58  84.0  1.00  0.90 IB001 IB001 IB001
@  SLB  SLMH  SLLL  SDUL  SSAT  SRGF  SSKS  SBDM  SLOC  SLCL  SLSI  SLCF  SLNI  SLHW  SLHB  SCEC  SADC
     0   -99 0.293 0.362 0.450  1.00  0.30  1.39  12.6  38.0  29.0   7.0   -99   6.9   5.9  36.0   -99
     5   -99 0.295 0.377 0.481  1.00  0.40  1.29   2.1  39.0  30.0   8.0   -99   6.8   5.7  38.0   -99
    15   -99 0.300 0.379 0.480  1.00  0.35  1.31   2.1  41.0  31.0  10.0   -99   6.8   5.6  38.0   -99
    30   -99 0.307 0.377 0.468  0.64  0.27  1.36   1.4  45.0  30.0  12.0   -99   6.9   5.6  39.0   -99
    60   -99 0.308 0.372 0.458  0.41  0.24  1.39   1.0  46.0  28.0  13.0   -99   7.0   5.7  40.0   -99
   100   -99 0.302 0.364 0.448  0.20  0.22  1.43   0.7  46.0  28.0  14.0   -99   7.3   5.8  39.0   -99
   200   -99 0.301 0.359 0.435  0.05  0.18  1.47   0.6  45.0  28.0  18.0   -99   7.3   5.9  40.0   -99

*ET00510_62  Assela_1    CL       144    Jemal DSSAT-spatial simulation
@SITE        COUNTRY         LAT     LONG     SCS Family
 00510062    Ethiopia        8.00    39.10 Haplic Vertisols
@ SCOM  SALB  SLU1  SLDR  SLRO  SLNF  SLPF  SMHB  SMPX  SMKE
   -99  0.13   6.0  0.58  84.0  1.00  0.90 IB001 IB001 IB001
@  SLB  SLMH  SLLL  SDUL  SSAT  SRGF  SSKS  SBDM  SLOC  SLCL  SLSI  SLCF  SLNI  SLHW  SLHB  SCEC  SADC
     0   -99 0.293 0.362 0.450  1.00  0.30  1.39  12.6  38.0  29.0   7.0   -99   6.9   5.9  36.0   -99
     5   -99 0.295 0.377 0.481  1.00  0.40  1.29   2.1  39.0  30.0   8.0   -99   6.8   5.7  38.0   -99
    15   -99 0.300 0.379 0.480  1.00  0.35  1.31   2.1  41.0  31.0  10.0   -99   6.8   5.6  38.0   -99
    30   -99 0.307 0.377 0.468  0.64  0.27  1.36   1.4  45.0  30.0  12.0   -99   6.9   5.6  39.0   -99
    60   -99 0.308 0.372 0.458  0.00  0.24  1.39   1.0  46.0  28.0  13.0   -99   7.0   5.7  40.0   -99
   100   -99 0.302 0.364 0.448  0.00  0.22  1.43   0.7  46.0  28.0  14.0   -99   7.3   5.8  39.0   -99
   200   -99 0.301 0.359 0.435  0.00  0.18  1.47   0.6  45.0  28.0  18.0   -99   7.3   5.9  40.0   -99

*ET00511_62  Assela_1    CL       144  Jemal DSSAT-spatial simulation
@SITE        COUNTRY         LAT     LONG     SCS Family
 00510062    Ethiopia        8.00    39.10 Haplic Vertisols
@ SCOM  SALB  SLU1  SLDR  SLRO  SLNF  SLPF  SMHB  SMPX  SMKE
   -99  0.13   6.0  0.58  84.0  1.00  0.90 IB001 IB001 IB001
@  SLB  SLMH  SLLL  SDUL  SSAT  SRGF  SSKS  SBDM  SLOC  SLCL  SLSI  SLCF  SLNI  SLHW  SLHB  SCEC  SADC
     0   -99 0.293 0.362 0.450  1.00  0.30  1.39  12.6  38.0  29.0   7.0   -99   6.9   5.9  36.0   -99
     5   -99 0.295 0.377 0.481  1.00  0.40  1.29   2.1  39.0  30.0   8.0   -99   6.8   5.7  38.0   -99
    15   -99 0.300 0.379 0.480  1.00  0.35  1.31   2.1  41.0  31.0  10.0   -99   6.8   5.6  38.0   -99
    30   -99 0.307 0.377 0.468  0.64  0.27  1.36   1.4  45.0  30.0  12.0   -99   6.9   5.6  39.0   -99
    60   -99 0.308 0.372 0.458  0.41  0.24  1.39   1.0  46.0  28.0  13.0   -99   7.0   5.7  40.0   -99
   100   -99 0.302 0.364 0.448  0.00  0.22  1.43   0.7  46.0  28.0  14.0   -99   7.3   5.8  39.0   -99
   200   -99 0.301 0.359 0.435  0.00  0.18  1.47   0.6  45.0  28.0  18.0   -99   7.3   5.9  40.0   -99

*ET00990066  Mahoni_1    C        114    Jemal DSSAT-spatial simulation
@SITE        COUNTRY         LAT     LONG     SCS Family
 00990066    Ethiopia       12.80    39.50 Haplic Leptosols
@ SCOM  SALB  SLU1  SLDR  SLRO  SLNF  SLPF  SMHB  SMPX  SMKE
   -99  0.13   6.0  0.50  88.0  1.00  1.00 IB001 IB001 IB001
@  SLB  SLMH  SLLL  SDUL  SSAT  SRGF  SSKS  SBDM  SLOC  SLCL  SLSI  SLCF  SLNI  SLHW  SLHB  SCEC  SADC
     0   -99 0.321 0.387 0.474  1.00  0.26  1.33  12.3  42.0  26.0  27.0   -99   7.0   6.4  46.0   -99
     5   -99 0.321 0.401 0.511  1.00  0.38  1.22   2.3  43.0  26.0  27.0   -99   7.0   6.2  47.0   -99
    15   -99 0.320 0.398 0.503  1.00  0.34  1.25   1.9  44.0  27.0  30.0   -99   7.1   6.2  46.0   -99
    30   -99 0.319 0.388 0.481  0.64  0.26  1.32   1.4  45.0  27.0  51.0   -99   7.2   6.3  46.0   -99
    60   -99 0.319 0.384 0.473  0.41  0.24  1.35   1.0  46.0  26.0  46.0   -99   7.3   6.3  46.0   -99
   100   -99 0.319 0.382 0.471  0.20  0.23  1.36   0.7  47.0  25.0  46.0   -99   7.4   6.3  46.0   -99
   200   -99 0.316 0.378 0.465  0.05  0.22  1.38   0.6  46.0  25.0  47.0   -99   7.4   6.4  46.0   -99

*ET00990_66  Mahoni_1    C        114    Jemal DSSAT-spatial simulation
@SITE        COUNTRY         LAT     LONG     SCS Family
 00990066    Ethiopia       12.80    39.50 Haplic Leptosols
@ SCOM  SALB  SLU1  SLDR  SLRO  SLNF  SLPF  SMHB  SMPX  SMKE
   -99  0.13   6.0  0.50  88.0  1.00  1.00 IB001 IB001 IB001
@  SLB  SLMH  SLLL  SDUL  SSAT  SRGF  SSKS  SBDM  SLOC  SLCL  SLSI  SLCF  SLNI  SLHW  SLHB  SCEC  SADC
     0   -99 0.321 0.387 0.474  1.00  0.26  1.33  12.3  42.0  26.0  27.0   -99   7.0   6.4  46.0   -99
     5   -99 0.321 0.401 0.511  1.00  0.38  1.22   2.3  43.0  26.0  27.0   -99   7.0   6.2  47.0   -99
    15   -99 0.320 0.398 0.503  1.00  0.34  1.25   1.9  44.0  27.0  30.0   -99   7.1   6.2  46.0   -99
    30   -99 0.319 0.388 0.481  0.64  0.26  1.32   1.4  45.0  27.0  51.0   -99   7.2   6.3  46.0   -99
    60   -99 0.319 0.384 0.473  0.00  0.24  1.35   1.0  46.0  26.0  46.0   -99   7.3   6.3  46.0   -99
   100   -99 0.319 0.382 0.471  0.00  0.23  1.36   0.7  47.0  25.0  46.0   -99   7.4   6.3  46.0   -99
   200   -99 0.316 0.378 0.465  0.00  0.22  1.38   0.6  46.0  25.0  47.0   -99   7.4   6.4  46.0   -99

*ET00991_66  Mahoni_1    C        114    Jemal DSSAT-spatial simulation
@SITE        COUNTRY         LAT     LONG     SCS Family
 00990066    Ethiopia       12.80    39.50 Haplic Leptosols
@ SCOM  SALB  SLU1  SLDR  SLRO  SLNF  SLPF  SMHB  SMPX  SMKE
   -99  0.13   6.0  0.50  88.0  1.00  1.00 IB001 IB001 IB001
@  SLB  SLMH  SLLL  SDUL  SSAT  SRGF  SSKS  SBDM  SLOC  SLCL  SLSI  SLCF  SLNI  SLHW  SLHB  SCEC  SADC
     0   -99 0.321 0.387 0.474  1.00  0.26  1.33  12.3  42.0  26.0  27.0   -99   7.0   6.4  46.0   -99
     5   -99 0.321 0.401 0.511  1.00  0.38  1.22   2.3  43.0  26.0  27.0   -99   7.0   6.2  47.0   -99
    15   -99 0.320 0.398 0.503  1.00  0.34  1.25   1.9  44.0  27.0  30.0   -99   7.1   6.2  46.0   -99
    30   -99 0.319 0.388 0.481  0.64  0.26  1.32   1.4  45.0  27.0  51.0   -99   7.2   6.3  46.0   -99
    60   -99 0.319 0.384 0.473  0.41  0.24  1.35   1.0  46.0  26.0  46.0   -99   7.3   6.3  46.0   -99
   100   -99 0.319 0.382 0.471  0.00  0.23  1.36   0.7  47.0  25.0  46.0   -99   7.4   6.3  46.0   -99
   200   -99 0.316 0.378 0.465  0.00  0.22  1.38   0.6  46.0  25.0  47.0   -99   7.4   6.4  46.0   -99

*ET00990067  Mahoni_2    CL       103    Jemal DSSAT-spatial simulation
@SITE        COUNTRY         LAT     LONG     SCS Family
 00990067    Ethiopia       12.80    39.60 Haplic Leptosols
@ SCOM  SALB  SLU1  SLDR  SLRO  SLNF  SLPF  SMHB  SMPX  SMKE
   -99  0.13   6.0  0.60  80.0  1.00  1.00 IB001 IB001 IB001
@  SLB  SLMH  SLLL  SDUL  SSAT  SRGF  SSKS  SBDM  SLOC  SLCL  SLSI  SLCF  SLNI  SLHW  SLHB  SCEC  SADC
     0   -99 0.306 0.375 0.463  1.00  0.29  1.35  11.9  37.0  28.0  34.0   -99   7.0   6.2  44.0   -99
     5   -99 0.294 0.375 0.481  1.00  0.42  1.29   2.3  38.0  28.0  35.0   -99   6.9   6.1  40.0   -99
    15   -99 0.297 0.374 0.475  1.00  0.36  1.32   2.0  40.0  28.0  41.0   -99   7.0   6.1  40.0   -99
    30   -99 0.295 0.364 0.457  0.64  0.31  1.38   1.4  41.0  27.0  54.0   -99   7.1   6.1  40.0   -99
    60   -99 0.297 0.365 0.457  0.41  0.30  1.39   1.0  42.0  26.0  54.0   -99   7.1   6.2  40.0   -99
   100   -99 0.295 0.361 0.452  0.20  0.28  1.41   0.9  43.0  26.0  53.0   -99   7.2   6.3  39.0   -99
   200   -99 0.296 0.359 0.447  0.05  0.27  1.42   0.8  43.0  25.0  53.0   -99   7.2   6.3  40.0   -99
   
*ET00990_67  Mahoni_2    CL       103    Jemal DSSAT-spatial simulation
@SITE        COUNTRY         LAT     LONG     SCS Family
 00990067    Ethiopia       12.80    39.60 Haplic Leptosols
@ SCOM  SALB  SLU1  SLDR  SLRO  SLNF  SLPF  SMHB  SMPX  SMKE
   -99  0.13   6.0  0.60  80.0  1.00  1.00 IB001 IB001 IB001
@  SLB  SLMH  SLLL  SDUL  SSAT  SRGF  SSKS  SBDM  SLOC  SLCL  SLSI  SLCF  SLNI  SLHW  SLHB  SCEC  SADC
     0   -99 0.306 0.375 0.463  1.00  0.29  1.35  11.9  37.0  28.0  34.0   -99   7.0   6.2  44.0   -99
     5   -99 0.294 0.375 0.481  1.00  0.42  1.29   2.3  38.0  28.0  35.0   -99   6.9   6.1  40.0   -99
    15   -99 0.297 0.374 0.475  1.00  0.36  1.32   2.0  40.0  28.0  41.0   -99   7.0   6.1  40.0   -99
    30   -99 0.295 0.364 0.457  0.64  0.31  1.38   1.4  41.0  27.0  54.0   -99   7.1   6.1  40.0   -99
    60   -99 0.297 0.365 0.457  0.00  0.30  1.39   1.0  42.0  26.0  54.0   -99   7.1   6.2  40.0   -99
   100   -99 0.295 0.361 0.452  0.00  0.28  1.41   0.9  43.0  26.0  53.0   -99   7.2   6.3  39.0   -99
   200   -99 0.296 0.359 0.447  0.00  0.27  1.42   0.8  43.0  25.0  53.0   -99   7.2   6.3  40.0   -99

*ET00991_67  Mahoni_2    CL       103    Jemal DSSAT-spatial simulation
@SITE        COUNTRY         LAT     LONG     SCS Family
 00990067    Ethiopia       12.80    39.60 Haplic Leptosols
@ SCOM  SALB  SLU1  SLDR  SLRO  SLNF  SLPF  SMHB  SMPX  SMKE
   -99  0.13   6.0  0.60  80.0  1.00  1.00 IB001 IB001 IB001
@  SLB  SLMH  SLLL  SDUL  SSAT  SRGF  SSKS  SBDM  SLOC  SLCL  SLSI  SLCF  SLNI  SLHW  SLHB  SCEC  SADC
     0   -99 0.306 0.375 0.463  1.00  0.29  1.35  11.9  37.0  28.0  34.0   -99   7.0   6.2  44.0   -99
     5   -99 0.294 0.375 0.481  1.00  0.42  1.29   2.3  38.0  28.0  35.0   -99   6.9   6.1  40.0   -99
    15   -99 0.297 0.374 0.475  1.00  0.36  1.32   2.0  40.0  28.0  41.0   -99   7.0   6.1  40.0   -99
    30   -99 0.295 0.364 0.457  0.64  0.31  1.38   1.4  41.0  27.0  54.0   -99   7.1   6.1  40.0   -99
    60   -99 0.297 0.365 0.457  0.41  0.30  1.39   1.0  42.0  26.0  54.0   -99   7.1   6.2  40.0   -99
   100   -99 0.295 0.361 0.452  0.00  0.28  1.41   0.9  43.0  26.0  53.0   -99   7.2   6.3  39.0   -99
   200   -99 0.296 0.359 0.447  0.00  0.27  1.42   0.8  43.0  25.0  53.0   -99   7.2   6.3  40.0   -99